data_ZIF-8_p1

_audit_creation_method RASPA-1.0
_audit_creation_date 2022-9-14
_audit_author_name 'Salvador Rodríguez Gómez'

_cell_length_a    16.991
_cell_length_b    16.991
_cell_length_c    16.991
_cell_angle_alpha 90
_cell_angle_beta  90
_cell_angle_gamma 90
_cell_volume      4905.2

_symmetry_cell_setting          triclinic
_symmetry_space_group_name_Hall 'P 1'
_symmetry_space_group_name_H-M  'P 1'
_symmetry_Int_Tables_number     1

_symmetry_equiv_pos_as_xyz 'x,y,z'

loop_
_atom_site_label
_atom_site_type_symbol
_atom_site_fract_x
_atom_site_fract_y
_atom_site_fract_z
_atom_site_charge
C        C      0.379450000000     0.009660000000     0.621540000000     0.135498   
C        C      0.374170000000     0.898840000000     0.682330000000    -0.00108596 
H        H      0.390570000000     0.853310000000     0.722840000000     0.0260529  
C        C      0.405660000000     0.089110000000     0.595940000000    -0.114658   
N        N      0.414400000000     0.968480000000     0.678560000000    -0.18571    
Zn       Zn     0.502890000000     0.998250000000     0.748750000000     0.223522   
C        C      0.008680000000     0.623070000000     0.377080000000     0.136026   
C        C      0.897190000000     0.627260000000     0.317490000000    -0.00141527 
H        H      0.851920000000     0.611440000000     0.276470000000     0.0272675  
C        C      0.088540000000     0.597770000000     0.402150000000    -0.113042   
N        N      0.968130000000     0.589200000000     0.318940000000    -0.186562   
Zn       Zn     0.000100000000     0.501350000000     0.248780000000     0.224837   
C        C      0.624770000000     0.991770000000     0.620510000000     0.13696    
C        C      0.638140000000     0.095600000000     0.691600000000    -0.00068813 
H        H      0.626030000000     0.137180000000     0.737480000000     0.028317   
C        C      0.593110000000     0.917040000000     0.587980000000    -0.113045   
H        H      0.551130000000     0.929480000000     0.541050000000     0.054586   
H        H      0.562990000000     0.883980000000     0.633820000000     0.0658356  
H        H      0.640530000000     0.881740000000     0.563360000000     0.065613   
N        N      0.593800000000     0.029010000000     0.682370000000    -0.189426   
C        C      0.993430000000     0.380820000000     0.377630000000     0.13633    
C        C      0.103860000000     0.375360000000     0.316220000000    -0.00076744 
H        H      0.148720000000     0.390890000000     0.274630000000     0.0256935  
C        C      0.914560000000     0.407860000000     0.403980000000    -0.111694   
H        H      0.920550000000     0.460610000000     0.440050000000     0.0514471  
H        H      0.877730000000     0.422640000000     0.353720000000     0.0649635  
H        H      0.886290000000     0.362410000000     0.439090000000     0.0678264  
N        N      0.033500000000     0.414320000000     0.318940000000    -0.186379   
C        C      0.378750000000     0.992860000000     0.380440000000     0.135795   
C        C      0.374030000000     0.102110000000     0.316830000000    -0.00151167 
H        H      0.390330000000     0.146260000000     0.274790000000     0.0266487  
C        C      0.404350000000     0.913850000000     0.407910000000    -0.11435    
N        N      0.413450000000     0.032090000000     0.321920000000    -0.186164   
Zn       Zn     0.501560000000     0.000060000000     0.252170000000     0.22355    
C        C      0.993280000000     0.620790000000     0.620860000000     0.136528   
C        C      0.100480000000     0.626990000000     0.687720000000    -0.00067654 
H        H      0.142820000000     0.612360000000     0.732160000000     0.027563   
C        C      0.915630000000     0.593870000000     0.591000000000    -0.111342   
N        N      0.030360000000     0.587900000000     0.681770000000    -0.187808   
Zn       Zn     0.996600000000     0.499640000000     0.750320000000     0.222633   
C        C      0.622870000000     0.005960000000     0.380610000000     0.136761   
C        C      0.637910000000     0.903370000000     0.308060000000    -0.00010218 
H        H      0.626390000000     0.862140000000     0.261700000000     0.0274519  
C        C      0.589700000000     0.079560000000     0.414250000000    -0.113011   
H        H      0.543900000000     0.065570000000     0.456980000000     0.0540595  
H        H      0.563650000000     0.115360000000     0.367970000000     0.0652647  
H        H      0.635530000000     0.112760000000     0.444180000000     0.0666594  
N        N      0.592260000000     0.968870000000     0.318470000000    -0.189575   
C        C      0.003980000000     0.379530000000     0.620740000000     0.136911   
C        C      0.896410000000     0.369140000000     0.686450000000    -0.00076804 
H        H      0.852790000000     0.382400000000     0.730090000000     0.0262863  
C        C      0.080970000000     0.408960000000     0.591540000000    -0.11191    
H        H      0.072040000000     0.445840000000     0.539770000000     0.0518432  
H        H      0.109910000000     0.443900000000     0.636690000000     0.0665759  
H        H      0.118600000000     0.360000000000     0.574530000000     0.065607   
N        N      0.964810000000     0.411260000000     0.680960000000    -0.185628   
C        C      0.619580000000     0.377650000000     0.008540000000     0.135844   
C        C      0.685470000000     0.370660000000     0.900750000000    -0.00136094 
H        H      0.729240000000     0.385320000000     0.857720000000     0.0276623  
C        C      0.590200000000     0.405200000000     0.086170000000    -0.111748   
N        N      0.679490000000     0.410990000000     0.970190000000    -0.18844    
Zn       Zn     0.747370000000     0.500790000000     0.001270000000     0.221535   
C        C      0.378830000000     0.376360000000     0.991210000000     0.135897   
C        C      0.365430000000     0.308650000000     0.097240000000     0.00020139 
H        H      0.377480000000     0.264190000000     0.140350000000     0.0282979  
C        C      0.410430000000     0.405950000000     0.915210000000    -0.113299   
H        H      0.466690000000     0.435330000000     0.924600000000     0.0540287  
H        H      0.420430000000     0.357420000000     0.874590000000     0.0639053  
H        H      0.369340000000     0.447630000000     0.889250000000     0.0668616  
N        N      0.409690000000     0.315630000000     0.030380000000    -0.18623    
Zn       Zn     0.499730000000     0.247940000000     0.999930000000     0.225071   
C        C      0.376940000000     0.620740000000     0.006820000000     0.136121   
C        C      0.311150000000     0.631050000000     0.899270000000    -0.00072858 
H        H      0.268080000000     0.617200000000     0.855270000000     0.0257603  
C        C      0.406450000000     0.590620000000     0.083430000000    -0.111472   
N        N      0.317770000000     0.587900000000     0.966930000000    -0.187721   
Zn       Zn     0.249660000000     0.497940000000     0.997180000000     0.222508   
C        C      0.617300000000     0.621500000000     0.994340000000     0.136008   
C        C      0.627050000000     0.686860000000     0.102200000000    -0.00018055 
H        H      0.613100000000     0.729870000000     0.146230000000     0.0263642  
C        C      0.587580000000     0.592780000000     0.917260000000    -0.112827   
H        H      0.531450000000     0.562710000000     0.925170000000     0.0539803  
H        H      0.577880000000     0.641690000000     0.877040000000     0.063549   
H        H      0.629540000000     0.551820000000     0.891570000000     0.0663996  
N        N      0.584910000000     0.681160000000     0.033890000000    -0.184626   
Zn       Zn     0.496910000000     0.750670000000     0.001710000000     0.224508   
C        C      0.684000000000     0.630590000000     0.101470000000    -0.00160958 
H        H      0.728100000000     0.616840000000     0.144460000000     0.0279667  
N        N      0.677800000000     0.589220000000     0.032660000000    -0.187141   
C        C      0.628920000000     0.313990000000     0.899650000000     6.657e-05  
H        H      0.614800000000     0.271660000000     0.855030000000     0.026559   
H        H      0.536360000000     0.439250000000     0.078410000000     0.0522472  
H        H      0.576460000000     0.355440000000     0.124080000000     0.0642373  
H        H      0.634050000000     0.442410000000     0.114300000000     0.0664796  
N        N      0.587320000000     0.318320000000     0.968400000000    -0.183942   
C        C      0.308930000000     0.365380000000     0.096080000000    -0.00082529 
H        H      0.263520000000     0.378440000000     0.137890000000     0.0279755  
N        N      0.317510000000     0.408290000000     0.028490000000    -0.186082   
C        C      0.366480000000     0.688910000000     0.900760000000    -0.00022808 
H        H      0.379320000000     0.734000000000     0.858550000000     0.0291903  
H        H      0.457510000000     0.552870000000     0.074030000000     0.0515909  
H        H      0.424640000000     0.639120000000     0.121090000000     0.0654529  
H        H      0.360960000000     0.556290000000     0.112630000000     0.066015   
N        N      0.408110000000     0.682340000000     0.969320000000    -0.185433   
C        C      0.897500000000     0.683340000000     0.374660000000    -0.00061633 
H        H      0.852530000000     0.724250000000     0.391600000000     0.0265316  
H        H      0.084560000000     0.562620000000     0.455690000000     0.0537016  
H        H      0.125270000000     0.648670000000     0.414900000000     0.0652561  
H        H      0.115810000000     0.562280000000     0.356390000000     0.0670058  
N        N      0.968600000000     0.680760000000     0.412260000000    -0.186064   
Zn       Zn     0.002660000000     0.749080000000     0.500570000000     0.226185   
C        C      0.896780000000     0.312940000000     0.629410000000    -0.00023088 
H        H      0.853510000000     0.269240000000     0.615170000000     0.0259739  
N        N      0.965400000000     0.319520000000     0.587870000000    -0.187463   
Zn       Zn     0.999580000000     0.252310000000     0.498860000000     0.224495   
C        C      0.316390000000     0.102710000000     0.372420000000    -0.00092242 
H        H      0.274000000000     0.147250000000     0.386590000000     0.0292022  
H        H      0.418150000000     0.915660000000     0.470500000000     0.0569964  
H        H      0.357790000000     0.870570000000     0.399550000000     0.0612645  
H        H      0.456270000000     0.895420000000     0.375300000000     0.0670302  
N        N      0.319380000000     0.033070000000     0.412680000000    -0.189203   
Zn       Zn     0.249210000000     0.002640000000     0.501030000000     0.224827   
C        C      0.103240000000     0.682600000000     0.630170000000    -0.00076887 
H        H      0.148810000000     0.723810000000     0.615800000000     0.0268098  
H        H      0.923930000000     0.554530000000     0.540970000000     0.0507149  
H        H      0.880620000000     0.643740000000     0.571290000000     0.0654341  
H        H      0.884250000000     0.561890000000     0.636710000000     0.0674136  
N        N      0.034820000000     0.678800000000     0.587940000000    -0.184657   
C        C      0.694890000000     0.903240000000     0.364310000000    -0.00040932 
H        H      0.741270000000     0.861840000000     0.375060000000     0.0285486  
N        N      0.685290000000     0.968640000000     0.410250000000    -0.18463    
Zn       Zn     0.753470000000     0.999550000000     0.499640000000     0.222488   
C        C      0.103740000000     0.319090000000     0.373180000000    -0.00141886 
H        H      0.148400000000     0.277480000000     0.389190000000     0.0277067  
N        N      0.033280000000     0.322490000000     0.411950000000    -0.184902   
C        C      0.315800000000     0.900420000000     0.627540000000    -0.00096182 
H        H      0.272590000000     0.856860000000     0.612820000000     0.0296186  
H        H      0.414960000000     0.089910000000     0.532520000000     0.0577708  
H        H      0.361310000000     0.133360000000     0.609590000000     0.0610868  
H        H      0.460220000000     0.104470000000     0.625710000000     0.0669378  
N        N      0.319170000000     0.971040000000     0.589050000000    -0.188091   
C        C      0.694740000000     0.096170000000     0.634970000000    -0.00012046 
H        H      0.740160000000     0.138420000000     0.623380000000     0.0274629  
N        N      0.686220000000     0.029980000000     0.589970000000    -0.185757   
C        C      0.876580000000     0.509010000000     0.122640000000     0.136163   
C        C      0.870430000000     0.399200000000     0.185170000000    -0.00078487 
H        H      0.886080000000     0.354370000000     0.226720000000     0.0277034  
C        C      0.904000000000     0.587500000000     0.095540000000    -0.112097   
H        H      0.956970000000     0.581130000000     0.059880000000     0.0527987  
H        H      0.918380000000     0.624850000000     0.145550000000     0.0642186  
H        H      0.858790000000     0.615450000000     0.059860000000     0.0671637  
N        N      0.910800000000     0.468720000000     0.180790000000    -0.186664   
C        C      0.509400000000     0.119420000000     0.878740000000     0.136102   
C        C      0.402420000000     0.127470000000     0.811680000000    -0.00073072 
H        H      0.359690000000     0.113080000000     0.767580000000     0.0285791  
C        C      0.586870000000     0.091870000000     0.908600000000    -0.115254   
N        N      0.471500000000     0.086660000000     0.818240000000    -0.185643   
C        C      0.120250000000     0.491510000000     0.119350000000     0.135212   
C        C      0.129730000000     0.600870000000     0.182290000000    -0.00092597 
H        H      0.115970000000     0.645490000000     0.224740000000     0.0288918  
C        C      0.091540000000     0.413070000000     0.093350000000    -0.114196   
H        H      0.029810000000     0.416690000000     0.076330000000     0.0561866  
H        H      0.096050000000     0.370320000000     0.140920000000     0.061901   
H        H      0.126100000000     0.392780000000     0.043420000000     0.0666213  
N        N      0.087990000000     0.532160000000     0.178390000000    -0.186809   
C        C      0.491770000000     0.877680000000     0.877940000000     0.136295   
C        C      0.600380000000     0.866770000000     0.813920000000    -0.00102713 
H        H      0.644380000000     0.879380000000     0.770440000000     0.0277397  
C        C      0.413830000000     0.907230000000     0.904470000000    -0.115376   
H        H      0.419070000000     0.967800000000     0.924900000000     0.0576857  
H        H      0.371670000000     0.906570000000     0.856200000000     0.0623515  
H        H      0.391970000000     0.870720000000     0.952290000000     0.0678308  
N        N      0.531600000000     0.908440000000     0.817570000000    -0.189819   
C        C      0.876680000000     0.493560000000     0.879830000000     0.13664    
C        C      0.863240000000     0.598660000000     0.810690000000    -0.00040808 
H        H      0.875140000000     0.641170000000     0.765590000000     0.0275316  
C        C      0.908650000000     0.418170000000     0.910510000000    -0.113151   
H        H      0.961480000000     0.429230000000     0.945220000000     0.0546365  
H        H      0.924730000000     0.379370000000     0.862140000000     0.0648818  
H        H      0.865240000000     0.389430000000     0.947770000000     0.0658647  
N        N      0.907330000000     0.531740000000     0.818380000000    -0.186246   
C        C      0.493260000000     0.120350000000     0.122750000000     0.136772   
C        C      0.600730000000     0.131120000000     0.188690000000    -0.00069308 
H        H      0.643990000000     0.118370000000     0.232850000000     0.0270693  
C        C      0.416130000000     0.090350000000     0.094430000000    -0.114903   
N        N      0.532090000000     0.089370000000     0.183620000000    -0.189579   
C        C      0.119390000000     0.505750000000     0.877820000000     0.136295   
C        C      0.130040000000     0.400390000000     0.808640000000    -0.00045177 
H        H      0.116340000000     0.357800000000     0.764150000000     0.0277974  
C        C      0.089210000000     0.581340000000     0.909790000000    -0.11157    
N        N      0.086470000000     0.467490000000     0.817650000000    -0.185554   
C        C      0.505710000000     0.879530000000     0.121770000000     0.136447   
C        C      0.401200000000     0.869250000000     0.192300000000    -0.00053639 
H        H      0.359730000000     0.882650000000     0.237890000000     0.0286931  
C        C      0.581440000000     0.908760000000     0.089200000000    -0.114445   
N        N      0.469120000000     0.911540000000     0.183440000000    -0.184557   
C        C      0.122920000000     0.878510000000     0.508740000000     0.136092   
C        C      0.182340000000     0.877230000000     0.397080000000    -0.00136783 
H        H      0.222590000000     0.894930000000     0.351820000000     0.0257477  
C        C      0.097390000000     0.902580000000     0.588850000000    -0.113745   
N        N      0.179810000000     0.914590000000     0.468350000000    -0.186348   
C        C      0.882500000000     0.877790000000     0.493200000000     0.136446   
C        C      0.873160000000     0.813880000000     0.602000000000    -0.00049258 
H        H      0.887210000000     0.771340000000     0.646450000000     0.0275278  
C        C      0.911680000000     0.905120000000     0.415400000000    -0.113519   
H        H      0.970700000000     0.929500000000     0.421440000000     0.0549662  
H        H      0.914940000000     0.856310000000     0.374000000000     0.0626613  
H        H      0.872740000000     0.950310000000     0.392180000000     0.0675494  
N        N      0.914810000000     0.818430000000     0.533290000000    -0.187343   
C        C      0.881890000000     0.121660000000     0.504690000000     0.136656   
C        C      0.811510000000     0.132690000000     0.400150000000    -0.00078004 
H        H      0.766260000000     0.119350000000     0.358240000000     0.0269181  
C        C      0.914560000000     0.091210000000     0.579890000000    -0.113074   
N        N      0.820740000000     0.089410000000     0.467420000000    -0.188734   
C        C      0.121820000000     0.124960000000     0.492430000000     0.136573   
C        C      0.126470000000     0.187020000000     0.602570000000    -0.0005275  
H        H      0.110760000000     0.229040000000     0.646960000000     0.0272211  
C        C      0.095620000000     0.098500000000     0.413310000000    -0.113323   
H        H      0.043600000000     0.061300000000     0.418750000000     0.0544919  
H        H      0.080040000000     0.148770000000     0.376820000000     0.065522   
H        H      0.141950000000     0.064630000000     0.384950000000     0.0665005  
N        N      0.087910000000     0.183730000000     0.532010000000    -0.185283   
C        C      0.182900000000     0.130220000000     0.603070000000    -0.000977   
H        H      0.224260000000     0.114520000000     0.648070000000     0.0258453  
N        N      0.180020000000     0.091000000000     0.532820000000    -0.186223   
C        C      0.127020000000     0.819340000000     0.396980000000    -0.00112632 
H        H      0.111180000000     0.778420000000     0.351630000000     0.0280925  
H        H      0.038950000000     0.928950000000     0.586190000000     0.055766   
H        H      0.094010000000     0.851890000000     0.627870000000     0.0637396  
H        H      0.138400000000     0.945460000000     0.612880000000     0.0672411  
N        N      0.089540000000     0.820040000000     0.468200000000    -0.18593    
C        C      0.816560000000     0.870510000000     0.600920000000    -0.00139233 
H        H      0.772970000000     0.885210000000     0.644120000000     0.0272154  
N        N      0.822510000000     0.910950000000     0.531540000000    -0.187765   
C        C      0.867410000000     0.190010000000     0.399220000000    -0.00052161 
H        H      0.878870000000     0.234850000000     0.356320000000     0.0284452  
H        H      0.967380000000     0.056580000000     0.568460000000     0.0535536  
H        H      0.930790000000     0.139620000000     0.618560000000     0.0653242  
H        H      0.871490000000     0.053790000000     0.608940000000     0.0667621  
N        N      0.911930000000     0.183020000000     0.465900000000    -0.18577    
C        C      0.401040000000     0.183910000000     0.868460000000    -0.00072237 
H        H      0.356600000000     0.226580000000     0.882180000000     0.0259185  
H        H      0.581220000000     0.072310000000     0.969410000000     0.0577833  
H        H      0.629900000000     0.139360000000     0.907390000000     0.0625492  
H        H      0.607980000000     0.043280000000     0.872670000000     0.0667495  
N        N      0.469250000000     0.178830000000     0.910900000000    -0.188608   
C        C      0.399170000000     0.812700000000     0.135650000000    -0.00057798 
H        H      0.355360000000     0.768890000000     0.123620000000     0.0264174  
H        H      0.571630000000     0.936120000000     0.031990000000     0.0563161  
H        H      0.622560000000     0.860330000000     0.080810000000     0.0636859  
H        H      0.607040000000     0.951990000000     0.128850000000     0.0668901  
N        N      0.465830000000     0.819220000000     0.090970000000    -0.189455   
C        C      0.807040000000     0.598480000000     0.867720000000    -0.00094798 
H        H      0.761910000000     0.640710000000     0.880410000000     0.0279881  
N        N      0.815590000000     0.531440000000     0.911500000000    -0.186126   
C        C      0.600940000000     0.186280000000     0.130650000000    -0.00096793 
H        H      0.644770000000     0.229080000000     0.115560000000     0.0272045  
H        H      0.423970000000     0.033590000000     0.065540000000     0.0567506  
H        H      0.390760000000     0.131600000000     0.052550000000     0.0676864  
H        H      0.375820000000     0.081920000000     0.143510000000     0.0637297  
N        N      0.532360000000     0.179520000000     0.088980000000    -0.186312   
C        C      0.188220000000     0.400530000000     0.863660000000    -0.00063464 
H        H      0.233690000000     0.358250000000     0.874960000000     0.0280078  
H        H      0.055330000000     0.570580000000     0.963240000000     0.051138   
H        H      0.137710000000     0.620380000000     0.924850000000     0.0641843  
H        H      0.051090000000     0.609660000000     0.866860000000     0.0675033  
N        N      0.181400000000     0.467700000000     0.907500000000    -0.189358   
C        C      0.599670000000     0.811920000000     0.872250000000    -0.00081657 
H        H      0.643340000000     0.769310000000     0.888330000000     0.0264239  
N        N      0.530390000000     0.818790000000     0.912700000000    -0.185193   
C        C      0.812690000000     0.400050000000     0.129690000000    -0.00125607 
H        H      0.769350000000     0.356450000000     0.115430000000     0.028326   
N        N      0.816640000000     0.470050000000     0.090120000000    -0.188069   
C        C      0.186180000000     0.599310000000     0.125520000000    -0.00088464 
H        H      0.229710000000     0.642380000000     0.110270000000     0.0279859  
N        N      0.180140000000     0.529590000000     0.085690000000    -0.186804   


