data_image0
_chemical_formula_structural       Cu12O48N120H24C24H24C24H24C24H24C24H48C48H24C24H24C24
_chemical_formula_sum              "Cu12 O48 N120 H192 C192"
_cell_length_a       19.7751
_cell_length_b       19.7758
_cell_length_c       19.7754
_cell_angle_alpha    89.9261
_cell_angle_beta     89.9252
_cell_angle_gamma    89.9224

_space_group_name_H-M_alt    "P 1"
_space_group_IT_number       1

loop_
  _space_group_symop_operation_xyz
  'x, y, z'

loop_
  _atom_site_type_symbol
  _atom_site_label
  _atom_site_symmetry_multiplicity
  _atom_site_fract_x
  _atom_site_fract_y
  _atom_site_fract_z
  _atom_site_occupancy
  Cu  Cu1       1.0  0.63571  0.09683  0.16747  1.0000
  Cu  Cu2       1.0  0.88788  0.92142  0.67092  1.0000
  Cu  Cu3       1.0  0.38224  0.59926  0.34672  1.0000
  Cu  Cu4       1.0  0.13229  0.41930  0.85109  1.0000
  Cu  Cu5       1.0  0.16746  0.63568  0.09689  1.0000
  Cu  Cu6       1.0  0.67086  0.88785  0.92151  1.0000
  Cu  Cu7       1.0  0.34668  0.38222  0.59931  1.0000
  Cu  Cu8       1.0  0.85107  0.13226  0.41935  1.0000
  Cu  Cu9       1.0  0.09687  0.16744  0.63571  1.0000
  Cu  Cu10      1.0  0.92145  0.67081  0.88793  1.0000
  Cu  Cu11      1.0  0.59929  0.34666  0.38227  1.0000
  Cu  Cu12      1.0  0.41933  0.85104  0.13234  1.0000
  O   O1        1.0  0.40514  0.18901  0.29806  1.0000
  O   O2        1.0  0.10766  0.83379  0.80233  1.0000
  O   O3        1.0  0.61239  0.68912  0.21500  1.0000
  O   O4        1.0  0.90357  0.32811  0.72021  1.0000
  O   O5        1.0  0.29805  0.40512  0.18905  1.0000
  O   O6        1.0  0.80230  0.10761  0.83384  1.0000
  O   O7        1.0  0.21497  0.61236  0.68918  1.0000
  O   O8        1.0  0.72018  0.90354  0.32821  1.0000
  O   O9        1.0  0.18903  0.29803  0.40516  1.0000
  O   O10       1.0  0.83382  0.80225  0.10771  1.0000
  O   O11       1.0  0.68915  0.21493  0.61241  1.0000
  O   O12       1.0  0.32815  0.72015  0.90362  1.0000
  O   O13       1.0  0.43835  0.15119  0.46637  1.0000
  O   O14       1.0  0.08307  0.86247  0.97072  1.0000
  O   O15       1.0  0.94006  0.36070  0.55159  1.0000
  O   O16       1.0  0.58209  0.66261  0.05031  1.0000
  O   O17       1.0  0.66264  0.05024  0.58209  1.0000
  O   O18       1.0  0.36073  0.55153  0.94010  1.0000
  O   O19       1.0  0.86251  0.97064  0.08313  1.0000
  O   O20       1.0  0.15121  0.46634  0.43836  1.0000
  O   O21       1.0  0.55156  0.94005  0.36079  1.0000
  O   O22       1.0  0.05027  0.58207  0.66266  1.0000
  O   O23       1.0  0.46636  0.43832  0.15124  1.0000
  O   O24       1.0  0.97066  0.08303  0.86252  1.0000
  O   O25       1.0  0.36118  0.16135  0.19857  1.0000
  O   O26       1.0  0.15631  0.85952  0.70451  1.0000
  O   O27       1.0  0.65434  0.66089  0.31518  1.0000
  O   O28       1.0  0.86817  0.35888  0.82225  1.0000
  O   O29       1.0  0.19856  0.36116  0.16139  1.0000
  O   O30       1.0  0.70448  0.15629  0.85956  1.0000
  O   O31       1.0  0.31514  0.65431  0.66095  1.0000
  O   O32       1.0  0.82222  0.86813  0.35897  1.0000
  O   O33       1.0  0.16138  0.19855  0.36117  1.0000
  O   O34       1.0  0.85954  0.70444  0.15638  1.0000
  O   O35       1.0  0.66092  0.31510  0.65437  1.0000
  O   O36       1.0  0.35891  0.82218  0.86821  1.0000
  O   O37       1.0  0.40880  0.11377  0.56811  1.0000
  O   O38       1.0  0.10785  0.91610  0.06612  1.0000
  O   O39       1.0  0.91108  0.40293  0.45151  1.0000
  O   O40       1.0  0.60969  0.61427  0.95273  1.0000
  O   O41       1.0  0.61431  0.95265  0.60975  1.0000
  O   O42       1.0  0.40295  0.45145  0.91112  1.0000
  O   O43       1.0  0.91613  0.06605  0.10787  1.0000
  O   O44       1.0  0.11379  0.56808  0.40882  1.0000
  O   O45       1.0  0.45148  0.91106  0.40300  1.0000
  O   O46       1.0  0.95268  0.60966  0.61435  1.0000
  O   O47       1.0  0.56810  0.40877  0.11382  1.0000
  O   O48       1.0  0.06609  0.10781  0.91612  1.0000
  N   N1        1.0  0.43546  0.31362  0.25825  1.0000
  N   N2        1.0  0.08402  0.70628  0.76624  1.0000
  N   N3        1.0  0.58408  0.81500  0.25279  1.0000
  N   N4        1.0  0.93472  0.20376  0.76017  1.0000
  N   N5        1.0  0.25823  0.43544  0.31367  1.0000
  N   N6        1.0  0.76622  0.08397  0.70632  1.0000
  N   N7        1.0  0.25274  0.58405  0.81506  1.0000
  N   N8        1.0  0.76014  0.93470  0.20386  1.0000
  N   N9        1.0  0.31365  0.25821  0.43547  1.0000
  N   N10       1.0  0.70631  0.76618  0.08406  1.0000
  N   N11       1.0  0.81504  0.25271  0.58410  1.0000
  N   N12       1.0  0.20379  0.76011  0.93477  1.0000
  N   N13       1.0  0.56351  0.18224  0.50558  1.0000
  N   N14       1.0  0.95610  0.83768  0.00743  1.0000
  N   N15       1.0  0.06427  0.33031  0.51224  1.0000
  N   N16       1.0  0.45498  0.68658  0.01265  1.0000
  N   N17       1.0  0.68661  0.01258  0.45500  1.0000
  N   N18       1.0  0.33034  0.51220  0.06428  1.0000
  N   N19       1.0  0.83773  0.00734  0.95618  1.0000
  N   N20       1.0  0.18227  0.50554  0.56352  1.0000
  N   N21       1.0  0.51223  0.06423  0.33034  1.0000
  N   N22       1.0  0.01262  0.45496  0.68662  1.0000
  N   N23       1.0  0.50556  0.56348  0.18230  1.0000
  N   N24       1.0  0.00737  0.95608  0.83779  1.0000
  N   N25       1.0  0.51195  0.34298  0.33043  1.0000
  N   N26       1.0  0.00820  0.67561  0.83865  1.0000
  N   N27       1.0  0.50792  0.84611  0.18085  1.0000
  N   N28       1.0  0.01019  0.17321  0.68715  1.0000
  N   N29       1.0  0.33040  0.51192  0.34304  1.0000
  N   N30       1.0  0.83860  0.00818  0.67572  1.0000
  N   N31       1.0  0.18080  0.50790  0.84616  1.0000
  N   N32       1.0  0.68716  0.01015  0.17324  1.0000
  N   N33       1.0  0.34301  0.33038  0.51197  1.0000
  N   N34       1.0  0.67565  0.83857  0.00826  1.0000
  N   N35       1.0  0.84614  0.18077  0.50795  1.0000
  N   N36       1.0  0.17324  0.68712  0.01021  1.0000
  N   N37       1.0  0.59435  0.25844  0.43330  1.0000
  N   N38       1.0  0.92577  0.75963  0.93758  1.0000
  N   N39       1.0  0.09305  0.25376  0.58475  1.0000
  N   N40       1.0  0.42272  0.76403  0.08252  1.0000
  N   N41       1.0  0.76407  0.08246  0.42273  1.0000
  N   N42       1.0  0.25377  0.58471  0.09306  1.0000
  N   N43       1.0  0.75967  0.93748  0.92584  1.0000
  N   N44       1.0  0.25847  0.43326  0.59437  1.0000
  N   N45       1.0  0.58474  0.09301  0.25377  1.0000
  N   N46       1.0  0.08249  0.42269  0.76408  1.0000
  N   N47       1.0  0.43328  0.59432  0.25851  1.0000
  N   N48       1.0  0.93752  0.92574  0.75973  1.0000
  N   N49       1.0  0.47125  0.39664  0.32117  1.0000
  N   N50       1.0  0.04954  0.62259  0.82922  1.0000
  N   N51       1.0  0.54869  0.89938  0.19099  1.0000
  N   N52       1.0  0.96935  0.11991  0.69760  1.0000
  N   N53       1.0  0.32115  0.47122  0.39669  1.0000
  N   N54       1.0  0.82921  0.04949  0.62264  1.0000
  N   N55       1.0  0.19094  0.54867  0.89943  1.0000
  N   N56       1.0  0.69758  0.96932  0.12001  1.0000
  N   N57       1.0  0.39667  0.32113  0.47127  1.0000
  N   N58       1.0  0.62262  0.82917  0.04957  1.0000
  N   N59       1.0  0.89941  0.19090  0.54872  1.0000
  N   N60       1.0  0.11994  0.69755  0.96938  1.0000
  N   N61       1.0  0.64822  0.21856  0.44470  1.0000
  N   N62       1.0  0.87245  0.80099  0.94579  1.0000
  N   N63       1.0  0.14663  0.29460  0.57642  1.0000
  N   N64       1.0  0.36930  0.72361  0.07174  1.0000
  N   N65       1.0  0.72364  0.07168  0.36932  1.0000
  N   N66       1.0  0.29461  0.57638  0.14664  1.0000
  N   N67       1.0  0.80104  0.94569  0.87254  1.0000
  N   N68       1.0  0.21858  0.44466  0.64824  1.0000
  N   N69       1.0  0.57641  0.14658  0.29462  1.0000
  N   N70       1.0  0.07171  0.36928  0.72365  1.0000
  N   N71       1.0  0.44468  0.64819  0.21862  1.0000
  N   N72       1.0  0.94573  0.87243  0.80110  1.0000
  N   N73       1.0  0.57889  0.17599  0.14562  1.0000
  N   N74       1.0  0.94124  0.84086  0.65261  1.0000
  N   N75       1.0  0.43805  0.67987  0.36492  1.0000
  N   N76       1.0  0.07961  0.33816  0.87285  1.0000
  N   N77       1.0  0.14560  0.57887  0.17604  1.0000
  N   N78       1.0  0.65255  0.94121  0.84096  1.0000
  N   N79       1.0  0.36488  0.43802  0.67992  1.0000
  N   N80       1.0  0.87284  0.07957  0.33820  1.0000
  N   N81       1.0  0.17601  0.14558  0.57889  1.0000
  N   N82       1.0  0.84090  0.65251  0.94129  1.0000
  N   N83       1.0  0.67989  0.36485  0.43808  1.0000
  N   N84       1.0  0.33818  0.87280  0.07966  1.0000
  N   N85       1.0  0.42834  0.32675  0.61905  1.0000
  N   N86       1.0  0.08902  0.69372  0.11715  1.0000
  N   N87       1.0  0.93143  0.18730  0.40131  1.0000
  N   N88       1.0  0.58940  0.83234  0.90406  1.0000
  N   N89       1.0  0.83238  0.90398  0.58945  1.0000
  N   N90       1.0  0.18733  0.40126  0.93145  1.0000
  N   N91       1.0  0.69376  0.11710  0.08903  1.0000
  N   N92       1.0  0.32677  0.61900  0.42837  1.0000
  N   N93       1.0  0.40127  0.93141  0.18738  1.0000
  N   N94       1.0  0.90402  0.58935  0.83243  1.0000
  N   N95       1.0  0.61903  0.42831  0.32680  1.0000
  N   N96       1.0  0.11712  0.08899  0.69375  1.0000
  N   N97       1.0  0.54843  0.28150  0.13473  1.0000
  N   N98       1.0  0.97174  0.73554  0.64137  1.0000
  N   N99       1.0  0.46888  0.78521  0.37595  1.0000
  N   N100      1.0  0.04890  0.23312  0.88601  1.0000
  N   N101      1.0  0.13470  0.54841  0.28154  1.0000
  N   N102      1.0  0.64131  0.97171  0.73564  1.0000
  N   N103      1.0  0.37590  0.46885  0.78527  1.0000
  N   N104      1.0  0.88600  0.04886  0.23316  1.0000
  N   N105      1.0  0.28152  0.13469  0.54844  1.0000
  N   N106      1.0  0.73558  0.64128  0.97178  1.0000
  N   N107      1.0  0.78524  0.37587  0.46891  1.0000
  N   N108      1.0  0.23315  0.88597  0.04894  1.0000
  N   N109      1.0  0.53392  0.29577  0.62944  1.0000
  N   N110      1.0  0.98409  0.72589  0.12860  1.0000
  N   N111      1.0  0.03630  0.21860  0.38808  1.0000
  N   N112      1.0  0.48424  0.80048  0.89428  1.0000
  N   N113      1.0  0.80051  0.89420  0.48429  1.0000
  N   N114      1.0  0.21863  0.38805  0.03631  1.0000
  N   N115      1.0  0.72593  0.12852  0.98412  1.0000
  N   N116      1.0  0.29580  0.62940  0.53395  1.0000
  N   N117      1.0  0.38807  0.03626  0.21863  1.0000
  N   N118      1.0  0.89423  0.48420  0.80055  1.0000
  N   N119      1.0  0.62942  0.53389  0.29584  1.0000
  N   N120      1.0  0.12854  0.98408  0.72597  1.0000
  H   H1        1.0  0.55208  0.33464  0.12465  1.0000
  H   H2        1.0  0.96822  0.68290  0.62918  1.0000
  H   H3        1.0  0.46581  0.83800  0.38799  1.0000
  H   H4        1.0  0.05179  0.18067  0.89976  1.0000
  H   H5        1.0  0.12462  0.55206  0.33469  1.0000
  H   H6        1.0  0.62913  0.96820  0.68300  1.0000
  H   H7        1.0  0.38794  0.46578  0.83806  1.0000
  H   H8        1.0  0.89976  0.05175  0.18071  1.0000
  H   H9        1.0  0.33467  0.12461  0.55209  1.0000
  H   H10       1.0  0.68294  0.62910  0.96827  1.0000
  H   H11       1.0  0.83803  0.38791  0.46584  1.0000
  H   H12       1.0  0.18069  0.89973  0.05182  1.0000
  H   H13       1.0  0.58686  0.29921  0.64053  1.0000
  H   H14       1.0  0.93138  0.72194  0.14088  1.0000
  H   H15       1.0  0.08898  0.21479  0.37546  1.0000
  H   H16       1.0  0.43113  0.80421  0.88310  1.0000
  H   H17       1.0  0.80425  0.88302  0.43119  1.0000
  H   H18       1.0  0.21480  0.37544  0.08899  1.0000
  H   H19       1.0  0.72197  0.14079  0.93140  1.0000
  H   H20       1.0  0.29924  0.64048  0.58689  1.0000
  H   H21       1.0  0.37546  0.08894  0.21481  1.0000
  H   H22       1.0  0.88305  0.43110  0.80428  1.0000
  H   H23       1.0  0.64051  0.58683  0.29928  1.0000
  H   H24       1.0  0.14081  0.93136  0.72202  1.0000
  C   C1        1.0  0.39390  0.27534  0.21329  1.0000
  C   C2        1.0  0.12543  0.74495  0.72124  1.0000
  C   C3        1.0  0.62482  0.77624  0.29844  1.0000
  C   C4        1.0  0.89409  0.24257  0.80591  1.0000
  C   C5        1.0  0.21327  0.39388  0.27538  1.0000
  C   C6        1.0  0.72121  0.12538  0.74499  1.0000
  C   C7        1.0  0.29839  0.62479  0.77631  1.0000
  C   C8        1.0  0.80589  0.89406  0.24267  1.0000
  C   C9        1.0  0.27537  0.21326  0.39390  1.0000
  C   C10       1.0  0.74497  0.72117  0.12547  1.0000
  C   C11       1.0  0.77628  0.29836  0.62485  1.0000
  C   C12       1.0  0.24260  0.80586  0.89413  1.0000
  C   C13       1.0  0.52466  0.14107  0.55098  1.0000
  C   C14       1.0  0.99449  0.88004  0.05174  1.0000
  C   C15       1.0  0.02626  0.37255  0.46715  1.0000
  C   C16       1.0  0.49456  0.64539  0.96804  1.0000
  C   C17       1.0  0.64542  0.96797  0.49462  1.0000
  C   C18       1.0  0.37258  0.46710  0.02627  1.0000
  C   C19       1.0  0.88008  0.05165  0.99452  1.0000
  C   C20       1.0  0.14109  0.55094  0.52467  1.0000
  C   C21       1.0  0.46714  0.02621  0.37259  1.0000
  C   C22       1.0  0.96799  0.49453  0.64545  1.0000
  C   C23       1.0  0.55097  0.52463  0.14113  1.0000
  C   C24       1.0  0.05169  0.99447  0.88013  1.0000
  H   H25       1.0  0.34368  0.29858  0.21220  1.0000
  H   H26       1.0  0.17637  0.72331  0.72174  1.0000
  H   H27       1.0  0.67528  0.79890  0.29960  1.0000
  H   H28       1.0  0.84329  0.22068  0.80658  1.0000
  H   H29       1.0  0.21218  0.34367  0.29862  1.0000
  H   H30       1.0  0.72170  0.17632  0.72335  1.0000
  H   H31       1.0  0.29955  0.67525  0.79897  1.0000
  H   H32       1.0  0.80655  0.84326  0.22076  1.0000
  H   H33       1.0  0.29861  0.21217  0.34369  1.0000
  H   H34       1.0  0.72332  0.72166  0.17641  1.0000
  H   H35       1.0  0.79894  0.29952  0.67531  1.0000
  H   H36       1.0  0.22070  0.80652  0.84333  1.0000
  H   H37       1.0  0.54686  0.09029  0.55142  1.0000
  H   H38       1.0  0.97177  0.93044  0.05170  1.0000
  H   H39       1.0  0.04916  0.42289  0.46695  1.0000
  H   H40       1.0  0.47238  0.59480  0.96762  1.0000
  H   H41       1.0  0.59483  0.96756  0.47244  1.0000
  H   H42       1.0  0.42291  0.46690  0.04917  1.0000
  H   H43       1.0  0.93048  0.05161  0.97180  1.0000
  H   H44       1.0  0.09031  0.55138  0.54687  1.0000
  H   H45       1.0  0.46694  0.04912  0.42292  1.0000
  H   H46       1.0  0.96758  0.47235  0.59486  1.0000
  H   H47       1.0  0.55141  0.54683  0.09035  1.0000
  H   H48       1.0  0.05166  0.97176  0.93054  1.0000
  C   C25       1.0  0.49087  0.29321  0.29187  1.0000
  C   C26       1.0  0.02819  0.72584  0.79981  1.0000
  C   C27       1.0  0.52861  0.79555  0.21884  1.0000
  C   C28       1.0  0.98998  0.22340  0.72571  1.0000
  C   C29       1.0  0.29185  0.49085  0.29326  1.0000
  C   C30       1.0  0.79979  0.02815  0.72587  1.0000
  C   C31       1.0  0.21879  0.52858  0.79561  1.0000
  C   C32       1.0  0.72567  0.98996  0.22349  1.0000
  C   C33       1.0  0.29324  0.29183  0.49089  1.0000
  C   C34       1.0  0.72586  0.79974  0.02823  1.0000
  C   C35       1.0  0.79559  0.21876  0.52863  1.0000
  C   C36       1.0  0.22343  0.72564  0.99002  1.0000
  C   C37       1.0  0.54362  0.23714  0.47066  1.0000
  C   C38       1.0  0.97602  0.78107  0.97543  1.0000
  C   C39       1.0  0.04368  0.27459  0.54539  1.0000
  C   C40       1.0  0.47410  0.74232  0.04630  1.0000
  C   C41       1.0  0.74236  0.04623  0.47411  1.0000
  C   C42       1.0  0.27461  0.54535  0.04370  1.0000
  C   C43       1.0  0.78111  0.97533  0.97608  1.0000
  C   C44       1.0  0.23716  0.47062  0.54364  1.0000
  C   C45       1.0  0.54539  0.04365  0.27462  1.0000
  C   C46       1.0  0.04627  0.47407  0.74237  1.0000
  C   C47       1.0  0.47064  0.54360  0.23720  1.0000
  C   C48       1.0  0.97535  0.97598  0.78118  1.0000
  H   H49       1.0  0.51570  0.24527  0.28804  1.0000
  H   H50       1.0  0.00287  0.77362  0.79596  1.0000
  H   H51       1.0  0.50373  0.74761  0.22147  1.0000
  H   H52       1.0  0.01489  0.27143  0.72881  1.0000
  H   H53       1.0  0.28802  0.51568  0.24532  1.0000
  H   H54       1.0  0.79590  0.00285  0.77371  1.0000
  H   H55       1.0  0.22143  0.50371  0.74766  1.0000
  H   H56       1.0  0.72880  0.01484  0.27145  1.0000
  H   H57       1.0  0.24530  0.28800  0.51572  1.0000
  H   H58       1.0  0.77365  0.79586  0.00293  1.0000
  H   H59       1.0  0.74764  0.22140  0.50376  1.0000
  H   H60       1.0  0.27146  0.72877  0.01492  1.0000
  H   H61       1.0  0.49521  0.26126  0.47265  1.0000
  H   H62       1.0  0.02376  0.75553  0.97972  1.0000
  H   H63       1.0  0.99599  0.24925  0.54062  1.0000
  H   H64       1.0  0.52228  0.76692  0.04461  1.0000
  H   H65       1.0  0.76695  0.04454  0.52230  1.0000
  H   H66       1.0  0.24927  0.54057  0.99602  1.0000
  H   H67       1.0  0.75556  0.97964  0.02381  1.0000
  H   H68       1.0  0.26129  0.47260  0.49523  1.0000
  H   H69       1.0  0.54060  0.99597  0.24933  1.0000
  H   H70       1.0  0.04458  0.52225  0.76697  1.0000
  H   H71       1.0  0.47263  0.49518  0.26132  1.0000
  H   H72       1.0  0.97967  0.02369  0.75558  1.0000
  C   C49       1.0  0.42536  0.37835  0.27785  1.0000
  C   C50       1.0  0.09497  0.64158  0.78560  1.0000
  C   C51       1.0  0.59440  0.88000  0.23414  1.0000
  C   C52       1.0  0.92414  0.13888  0.74154  1.0000
  C   C53       1.0  0.27783  0.42533  0.37839  1.0000
  C   C54       1.0  0.78559  0.09493  0.64163  1.0000
  C   C55       1.0  0.23408  0.59437  0.88006  1.0000
  C   C56       1.0  0.74152  0.92412  0.13897  1.0000
  C   C57       1.0  0.37838  0.27781  0.42537  1.0000
  C   C58       1.0  0.64161  0.78555  0.09501  1.0000
  C   C59       1.0  0.88004  0.23405  0.59443  1.0000
  C   C60       1.0  0.13890  0.74148  0.92417  1.0000
  C   C61       1.0  0.62908  0.17295  0.48812  1.0000
  C   C62       1.0  0.89128  0.84772  0.98795  1.0000
  C   C63       1.0  0.12870  0.34047  0.53272  1.0000
  C   C64       1.0  0.38935  0.67706  0.02981  1.0000
  C   C65       1.0  0.67710  0.02974  0.38937  1.0000
  C   C66       1.0  0.34049  0.53267  0.12872  1.0000
  C   C67       1.0  0.84776  0.98786  0.89137  1.0000
  C   C68       1.0  0.17298  0.48808  0.62909  1.0000
  C   C69       1.0  0.53270  0.12866  0.34050  1.0000
  C   C70       1.0  0.02978  0.38933  0.67711  1.0000
  C   C71       1.0  0.48810  0.62905  0.17302  1.0000
  C   C72       1.0  0.98789  0.89127  0.84783  1.0000
  H   H73       1.0  0.38577  0.40909  0.25717  1.0000
  H   H74       1.0  0.13438  0.61118  0.76408  1.0000
  H   H75       1.0  0.63381  0.91023  0.25556  1.0000
  H   H76       1.0  0.88507  0.10824  0.76341  1.0000
  H   H77       1.0  0.25714  0.38575  0.40913  1.0000
  H   H78       1.0  0.76407  0.13434  0.61123  1.0000
  H   H79       1.0  0.25550  0.63378  0.91029  1.0000
  H   H80       1.0  0.76339  0.88503  0.10833  1.0000
  H   H81       1.0  0.40912  0.25713  0.38579  1.0000
  H   H82       1.0  0.61120  0.76403  0.13443  1.0000
  H   H83       1.0  0.91027  0.25546  0.63384  1.0000
  H   H84       1.0  0.10826  0.76336  0.88510  1.0000
  H   H85       1.0  0.65976  0.13439  0.51072  1.0000
  H   H86       1.0  0.86096  0.88743  0.00900  1.0000
  H   H87       1.0  0.15923  0.38001  0.51162  1.0000
  H   H88       1.0  0.35961  0.63745  0.00797  1.0000
  H   H89       1.0  0.63747  0.00791  0.35962  1.0000
  H   H90       1.0  0.38003  0.51157  0.15925  1.0000
  H   H91       1.0  0.88748  0.00890  0.86104  1.0000
  H   H92       1.0  0.13442  0.51068  0.65977  1.0000
  H   H93       1.0  0.51160  0.15920  0.38004  1.0000
  H   H94       1.0  0.00795  0.35959  0.63749  1.0000
  H   H95       1.0  0.51071  0.65972  0.13446  1.0000
  H   H96       1.0  0.00894  0.86094  0.88754  1.0000
  C   C73       1.0  0.42283  0.27656  0.14120  1.0000
  C   C74       1.0  0.09755  0.74078  0.64898  1.0000
  C   C75       1.0  0.59478  0.77921  0.36999  1.0000
  C   C76       1.0  0.92333  0.23873  0.87764  1.0000
  C   C77       1.0  0.14117  0.42281  0.27660  1.0000
  C   C78       1.0  0.64896  0.09750  0.74082  1.0000
  C   C79       1.0  0.36994  0.59474  0.77927  1.0000
  C   C80       1.0  0.87762  0.92331  0.23883  1.0000
  C   C81       1.0  0.27658  0.14116  0.42284  1.0000
  C   C82       1.0  0.74081  0.64891  0.09759  1.0000
  C   C83       1.0  0.77924  0.36991  0.59481  1.0000
  C   C84       1.0  0.23876  0.87758  0.92338  1.0000
  C   C85       1.0  0.52781  0.16986  0.62301  1.0000
  C   C86       1.0  0.99154  0.85157  0.12397  1.0000
  C   C87       1.0  0.02931  0.34430  0.39494  1.0000
  C   C88       1.0  0.49210  0.67454  0.89599  1.0000
  C   C89       1.0  0.67457  0.89592  0.49215  1.0000
  C   C90       1.0  0.34432  0.39491  0.02933  1.0000
  C   C91       1.0  0.85160  0.12387  0.99157  1.0000
  C   C92       1.0  0.16989  0.62297  0.52783  1.0000
  C   C93       1.0  0.39493  0.02927  0.34432  1.0000
  C   C94       1.0  0.89595  0.49207  0.67461  1.0000
  C   C95       1.0  0.62299  0.52778  0.16992  1.0000
  C   C96       1.0  0.12391  0.99153  0.85165  1.0000
  H   H97       1.0  0.38769  0.24934  0.10868  1.0000
  H   H98       1.0  0.13262  0.76734  0.61571  1.0000
  H   H99       1.0  0.62903  0.75168  0.40328  1.0000
  H   H100      1.0  0.88865  0.26495  0.91152  1.0000
  H   H101      1.0  0.10866  0.38768  0.24937  1.0000
  H   H102      1.0  0.61568  0.13257  0.76739  1.0000
  H   H103      1.0  0.40324  0.62900  0.75175  1.0000
  H   H104      1.0  0.91150  0.88863  0.26505  1.0000
  H   H105      1.0  0.24936  0.10865  0.38770  1.0000
  H   H106      1.0  0.76737  0.61564  0.13265  1.0000
  H   H107      1.0  0.75171  0.40320  0.62907  1.0000
  H   H108      1.0  0.26498  0.91146  0.88870  1.0000
  H   H109      1.0  0.50057  0.13509  0.65605  1.0000
  H   H110      1.0  0.01862  0.88630  0.15717  1.0000
  H   H111      1.0  0.00219  0.37924  0.36197  1.0000
  H   H112      1.0  0.52066  0.64059  0.86319  1.0000
  H   H113      1.0  0.64063  0.86313  0.52071  1.0000
  H   H114      1.0  0.37927  0.36192  0.00223  1.0000
  H   H115      1.0  0.88634  0.15709  0.01863  1.0000
  H   H116      1.0  0.13511  0.65601  0.50060  1.0000
  H   H117      1.0  0.36194  0.00218  0.37933  1.0000
  H   H118      1.0  0.86314  0.52063  0.64067  1.0000
  H   H119      1.0  0.65604  0.50054  0.13515  1.0000
  H   H120      1.0  0.15714  0.01859  0.88633  1.0000
  H   H121      1.0  0.42698  0.32916  0.12494  1.0000
  H   H122      1.0  0.09370  0.68747  0.63511  1.0000
  H   H123      1.0  0.59147  0.83218  0.38535  1.0000
  H   H124      1.0  0.92774  0.18552  0.89159  1.0000
  H   H125      1.0  0.12492  0.42696  0.32920  1.0000
  H   H126      1.0  0.63508  0.09365  0.68751  1.0000
  H   H127      1.0  0.38530  0.59143  0.83225  1.0000
  H   H128      1.0  0.89156  0.92771  0.18562  1.0000
  H   H129      1.0  0.32919  0.12490  0.42699  1.0000
  H   H130      1.0  0.68750  0.63505  0.09373  1.0000
  H   H131      1.0  0.83222  0.38527  0.59150  1.0000
  H   H132      1.0  0.18555  0.89153  0.92779  1.0000
  H   H133      1.0  0.58078  0.17300  0.63824  1.0000
  H   H134      1.0  0.93858  0.84787  0.13932  1.0000
  H   H135      1.0  0.08227  0.34083  0.37972  1.0000
  H   H136      1.0  0.43940  0.67726  0.87951  1.0000
  H   H137      1.0  0.67729  0.87944  0.43946  1.0000
  H   H138      1.0  0.34085  0.37969  0.08228  1.0000
  H   H139      1.0  0.84790  0.13922  0.93862  1.0000
  H   H140      1.0  0.17302  0.63819  0.58081  1.0000
  H   H141      1.0  0.37971  0.08224  0.34086  1.0000
  H   H142      1.0  0.87947  0.43937  0.67732  1.0000
  H   H143      1.0  0.63822  0.58075  0.17306  1.0000
  H   H144      1.0  0.13927  0.93857  0.84795  1.0000
  C   C97       1.0  0.49055  0.24445  0.13941  1.0000
  C   C98       1.0  0.02964  0.77256  0.64616  1.0000
  C   C99       1.0  0.52665  0.74790  0.37112  1.0000
  C   C100      1.0  0.99116  0.27027  0.88001  1.0000
  C   C101      1.0  0.13939  0.49053  0.24449  1.0000
  C   C102      1.0  0.64615  0.02961  0.77260  1.0000
  C   C103      1.0  0.37107  0.52662  0.74796  1.0000
  C   C104      1.0  0.87998  0.99114  0.27037  1.0000
  C   C105      1.0  0.24447  0.13937  0.49055  1.0000
  C   C106      1.0  0.77259  0.64610  0.02969  1.0000
  C   C107      1.0  0.74793  0.37104  0.52668  1.0000
  C   C108      1.0  0.27030  0.87994  0.99121  1.0000
  C   C109      1.0  0.49655  0.23805  0.62517  1.0000
  C   C110      1.0  0.02232  0.78319  0.12557  1.0000
  C   C111      1.0  0.99857  0.27603  0.39306  1.0000
  C   C112      1.0  0.52251  0.74312  0.89563  1.0000
  C   C113      1.0  0.74315  0.89556  0.52257  1.0000
  C   C114      1.0  0.27606  0.39301  0.99860  1.0000
  C   C115      1.0  0.78322  0.12550  0.02234  1.0000
  C   C116      1.0  0.23807  0.62512  0.49658  1.0000
  C   C117      1.0  0.39303  0.99856  0.27612  1.0000
  C   C118      1.0  0.89559  0.52248  0.74319  1.0000
  C   C119      1.0  0.62515  0.49652  0.23811  1.0000
  C   C120      1.0  0.12553  0.02229  0.78320  1.0000
  C   C121      1.0  0.51015  0.17843  0.14656  1.0000
  C   C122      1.0  0.00993  0.83853  0.65320  1.0000
  C   C123      1.0  0.50677  0.68205  0.36382  1.0000
  C   C124      1.0  0.01091  0.33605  0.87212  1.0000
  C   C125      1.0  0.14654  0.51013  0.17847  1.0000
  C   C126      1.0  0.65318  0.00989  0.83856  1.0000
  C   C127      1.0  0.36378  0.50674  0.68210  1.0000
  C   C128      1.0  0.87209  0.01088  0.33616  1.0000
  C   C129      1.0  0.17845  0.14652  0.51015  1.0000
  C   C130      1.0  0.83856  0.65313  0.00997  1.0000
  C   C131      1.0  0.68207  0.36375  0.50680  1.0000
  C   C132      1.0  0.33609  0.87205  0.01096  1.0000
  C   C133      1.0  0.43059  0.25801  0.61844  1.0000
  C   C134      1.0  0.08801  0.76255  0.11780  1.0000
  C   C135      1.0  0.93290  0.25601  0.40176  1.0000
  C   C136      1.0  0.58829  0.76360  0.90234  1.0000
  C   C137      1.0  0.76364  0.90226  0.58834  1.0000
  C   C138      1.0  0.25604  0.40171  0.93293  1.0000
  C   C139      1.0  0.76258  0.11774  0.08802  1.0000
  C   C140      1.0  0.25803  0.61840  0.43062  1.0000
  C   C141      1.0  0.40173  0.93288  0.25609  1.0000
  C   C142      1.0  0.90229  0.58825  0.76368  1.0000
  C   C143      1.0  0.61843  0.43056  0.25806  1.0000
  C   C144      1.0  0.11777  0.08797  0.76257  1.0000
  H   H145      1.0  0.48018  0.13367  0.15085  1.0000
  H   H146      1.0  0.03977  0.88329  0.65758  1.0000
  H   H147      1.0  0.53674  0.63731  0.35903  1.0000
  H   H148      1.0  0.98084  0.38076  0.86738  1.0000
  H   H149      1.0  0.15083  0.48016  0.13371  1.0000
  H   H150      1.0  0.65756  0.03973  0.88333  1.0000
  H   H151      1.0  0.35899  0.53671  0.63737  1.0000
  H   H152      1.0  0.86734  0.98082  0.38087  1.0000
  H   H153      1.0  0.13369  0.15082  0.48018  1.0000
  H   H154      1.0  0.88333  0.65751  0.03982  1.0000
  H   H155      1.0  0.63733  0.35896  0.53677  1.0000
  H   H156      1.0  0.38080  0.86729  0.98090  1.0000
  H   H157      1.0  0.38579  0.22809  0.61438  1.0000
  H   H158      1.0  0.13339  0.79194  0.11415  1.0000
  H   H159      1.0  0.88782  0.28573  0.40667  1.0000
  H   H160      1.0  0.63367  0.73417  0.90492  1.0000
  H   H161      1.0  0.73421  0.90484  0.63373  1.0000
  H   H162      1.0  0.28576  0.40661  0.88786  1.0000
  H   H163      1.0  0.79197  0.11409  0.13339  1.0000
  H   H164      1.0  0.22811  0.61435  0.38582  1.0000
  H   H165      1.0  0.40664  0.88781  0.28581  1.0000
  H   H166      1.0  0.90487  0.63363  0.73426  1.0000
  H   H167      1.0  0.61437  0.38577  0.22814  1.0000
  H   H168      1.0  0.11412  0.13335  0.79197  1.0000
  C   C145      1.0  0.60038  0.23888  0.13855  1.0000
  C   C146      1.0  0.91973  0.77810  0.64525  1.0000
  C   C147      1.0  0.41679  0.74283  0.37232  1.0000
  C   C148      1.0  0.10099  0.27538  0.88158  1.0000
  C   C149      1.0  0.13852  0.60035  0.23893  1.0000
  C   C150      1.0  0.64520  0.91971  0.77819  1.0000
  C   C151      1.0  0.37228  0.41677  0.74288  1.0000
  C   C152      1.0  0.88158  0.10095  0.27543  1.0000
  C   C153      1.0  0.23890  0.13851  0.60038  1.0000
  C   C154      1.0  0.77813  0.64516  0.91978  1.0000
  C   C155      1.0  0.74285  0.37225  0.41683  1.0000
  C   C156      1.0  0.27541  0.88154  0.10103  1.0000
  C   C157      1.0  0.49137  0.34788  0.62574  1.0000
  C   C158      1.0  0.02573  0.67337  0.12365  1.0000
  C   C159      1.0  0.99437  0.16631  0.39304  1.0000
  C   C160      1.0  0.52599  0.85291  0.89918  1.0000
  C   C161      1.0  0.85295  0.89910  0.52605  1.0000
  C   C162      1.0  0.16634  0.39300  0.99439  1.0000
  C   C163      1.0  0.67340  0.12359  0.02574  1.0000
  C   C164      1.0  0.34791  0.62569  0.49140  1.0000
  C   C165      1.0  0.39302  0.99435  0.16640  1.0000
  C   C166      1.0  0.89914  0.52595  0.85299  1.0000
  C   C167      1.0  0.62572  0.49134  0.34794  1.0000
  C   C168      1.0  0.12362  0.02570  0.67339  1.0000
  H   H169      1.0  0.65227  0.25384  0.13560  1.0000
  H   H170      1.0  0.86781  0.76329  0.64252  1.0000
  H   H171      1.0  0.36501  0.75818  0.37572  1.0000
  H   H172      1.0  0.15283  0.26024  0.88521  1.0000
  H   H173      1.0  0.13557  0.65225  0.25389  1.0000
  H   H174      1.0  0.64246  0.86779  0.76338  1.0000
  H   H175      1.0  0.37568  0.36498  0.75823  1.0000
  H   H176      1.0  0.88521  0.15278  0.26029  1.0000
  H   H177      1.0  0.25387  0.13556  0.65227  1.0000
  H   H178      1.0  0.76333  0.64242  0.86787  1.0000
  H   H179      1.0  0.75821  0.37565  0.36504  1.0000
  H   H180      1.0  0.26026  0.88518  0.15286  1.0000
  H   H181      1.0  0.50673  0.39965  0.62844  1.0000
  H   H182      1.0  0.00959  0.62183  0.12488  1.0000
  H   H183      1.0  0.00991  0.11462  0.39027  1.0000
  H   H184      1.0  0.50981  0.90449  0.89890  1.0000
  H   H185      1.0  0.90453  0.89881  0.50987  1.0000
  H   H186      1.0  0.11463  0.39023  0.00992  1.0000
  H   H187      1.0  0.62185  0.12484  0.00960  1.0000
  H   H188      1.0  0.39968  0.62838  0.50676  1.0000
  H   H189      1.0  0.39025  0.00988  0.11470  1.0000
  H   H190      1.0  0.89885  0.50977  0.90457  1.0000
  H   H191      1.0  0.62841  0.50669  0.39971  1.0000
  H   H192      1.0  0.12486  0.00956  0.62185  1.0000
  C   C169      1.0  0.38658  0.20124  0.23992  1.0000
  C   C170      1.0  0.12970  0.82011  0.74572  1.0000
  C   C171      1.0  0.63075  0.70130  0.27318  1.0000
  C   C172      1.0  0.88846  0.31735  0.77963  1.0000
  C   C173      1.0  0.23990  0.38657  0.20128  1.0000
  C   C174      1.0  0.74568  0.12967  0.82016  1.0000
  C   C175      1.0  0.27313  0.63072  0.70136  1.0000
  C   C176      1.0  0.77960  0.88842  0.31744  1.0000
  C   C177      1.0  0.20126  0.23989  0.38659  1.0000
  C   C178      1.0  0.82014  0.74565  0.12976  1.0000
  C   C179      1.0  0.70133  0.27311  0.63078  1.0000
  C   C180      1.0  0.31738  0.77957  0.88850  1.0000
  C   C181      1.0  0.44972  0.13524  0.52548  1.0000
  C   C182      1.0  0.06924  0.88639  0.02652  1.0000
  C   C183      1.0  0.95164  0.37908  0.49321  1.0000
  C   C184      1.0  0.56963  0.64051  0.99353  1.0000
  C   C185      1.0  0.64054  0.99346  0.56969  1.0000
  C   C186      1.0  0.37910  0.49315  0.95167  1.0000
  C   C187      1.0  0.88642  0.02644  0.06926  1.0000
  C   C188      1.0  0.13526  0.52544  0.44974  1.0000
  C   C189      1.0  0.49317  0.95162  0.37916  1.0000
  C   C190      1.0  0.99347  0.56960  0.64060  1.0000
  C   C191      1.0  0.52547  0.44970  0.13529  1.0000
  C   C192      1.0  0.02648  0.06921  0.88640  1.0000
