data_image0
_chemical_formula_structural       Cu12O48N120H24C24H24C24H24C24H24C24H48C48H24C24H24C24
_chemical_formula_sum              "Cu12 O48 N120 H192 C192"
_cell_length_a       19.6457
_cell_length_b       19.6457
_cell_length_c       19.6457
_cell_angle_alpha    89.8504
_cell_angle_beta     89.8503
_cell_angle_gamma    89.8509

_space_group_name_H-M_alt    "P 1"
_space_group_IT_number       1

loop_
_space_group_symop_operation_xyz
'x, y, z'

loop_
_atom_site_type_symbol
_atom_site_label
_atom_site_fract_x
_atom_site_fract_y
_atom_site_fract_z
_atom_site_charge
Cu  Cu1    0.63681  0.10420  0.16953  1.0000   0.27148382
Cu  Cu2    0.88750  0.91976  0.66944  1.0000   0.27122692
Cu  Cu3    0.38744  0.60497  0.35533  1.0000   0.27573850
Cu  Cu4    0.13802  0.41876  0.85468  1.0000   0.27130225
Cu  Cu5    0.16952  0.63680  0.10422  1.0000   0.27181734
Cu  Cu6    0.66944  0.88749  0.91979  1.0000   0.27167425
Cu  Cu7    0.35532  0.38743  0.60500  1.0000   0.27583637
Cu  Cu8    0.85466  0.13801  0.41878  1.0000   0.27130615
Cu  Cu9    0.10420  0.16950  0.63681  1.0000   0.27133846
Cu  Cu10   0.91979  0.66942  0.88752  1.0000   0.27144824
Cu  Cu11   0.60498  0.35532  0.38746  1.0000   0.27575115
Cu  Cu12   0.41878  0.85466  0.13802  1.0000   0.27152146
O   O1     0.40670  0.20586  0.29200  1.0000  -0.57064698
O   O2     0.11811  0.81826  0.79125  1.0000  -0.57028693
O   O3     0.61782  0.70633  0.23359  1.0000  -0.57049818
O   O4     0.90631  0.31870  0.73305  1.0000  -0.56989860
O   O5     0.29199  0.40669  0.20588  1.0000  -0.57068805
O   O6     0.79125  0.11810  0.81829  1.0000  -0.57031627
O   O7     0.23358  0.61781  0.70634  1.0000  -0.57046944
O   O8     0.73304  0.90631  0.31872  1.0000  -0.56987955
O   O9     0.20587  0.29198  0.40671  1.0000  -0.57065773
O   O10    0.81828  0.79123  0.11812  1.0000  -0.57031415
O   O11    0.70633  0.23356  0.61783  1.0000  -0.57051686
O   O12    0.31872  0.73303  0.90632  1.0000  -0.56985642
O   O13    0.45610  0.15689  0.48313  1.0000  -0.57050276
O   O14    0.06833  0.86752  0.98276  1.0000  -0.57030086
O   O15    0.95599  0.36879  0.54146  1.0000  -0.57031779
O   O16    0.56832  0.65671  0.04183  1.0000  -0.57036780
O   O17    0.65671  0.04181  0.56832  1.0000  -0.57032004
O   O18    0.36880  0.54144  0.95600  1.0000  -0.57027146
O   O19    0.86754  0.98275  0.06834  1.0000  -0.57031227
O   O20    0.15690  0.48310  0.45612  1.0000  -0.57052683
O   O21    0.54144  0.95599  0.36880  1.0000  -0.57028406
O   O22    0.04181  0.56830  0.65673  1.0000  -0.57034529
O   O23    0.48312  0.45610  0.15691  1.0000  -0.57053954
O   O24    0.98276  0.06831  0.86753  1.0000  -0.57030750
O   O25    0.37775  0.17943  0.18597  1.0000  -0.52472056
O   O26    0.14789  0.84461  0.68514  1.0000  -0.52414890
O   O27    0.64771  0.67963  0.33946  1.0000  -0.52390322
O   O28    0.87677  0.34528  0.83911  1.0000  -0.52400559
O   O29    0.18596  0.37773  0.17944  1.0000  -0.52470480
O   O30    0.68513  0.14787  0.84464  1.0000  -0.52415070
O   O31    0.33945  0.64770  0.67964  1.0000  -0.52393230
O   O32    0.83909  0.87676  0.34530  1.0000  -0.52401239
O   O33    0.17943  0.18596  0.37775  1.0000  -0.52473029
O   O34    0.84463  0.68513  0.14791  1.0000  -0.52414291
O   O35    0.67963  0.33943  0.64773  1.0000  -0.52388615
O   O36    0.34529  0.83908  0.87677  1.0000  -0.52403794
O   O37    0.42948  0.12799  0.58940  1.0000  -0.52465676
O   O38    0.09461  0.89682  0.08875  1.0000  -0.52434900
O   O39    0.92948  0.39878  0.43552  1.0000  -0.52418897
O   O40    0.59538  0.62752  0.93586  1.0000  -0.52398771
O   O41    0.62752  0.93584  0.59538  1.0000  -0.52401072
O   O42    0.39879  0.43550  0.92949  1.0000  -0.52421338
O   O43    0.89683  0.08873  0.09461  1.0000  -0.52434707
O   O44    0.12800  0.58938  0.42949  1.0000  -0.52463572
O   O45    0.43550  0.92947  0.39879  1.0000  -0.52422373
O   O46    0.93585  0.59536  0.62754  1.0000  -0.52401736
O   O47    0.58940  0.42948  0.12802  1.0000  -0.52462788
O   O48    0.08875  0.09459  0.89682  1.0000  -0.52431780
N   N1     0.44355  0.33019  0.25907  1.0000   0.04051977
N   N2     0.08152  0.69392  0.75897  1.0000   0.04036330
N   N3     0.58053  0.83039  0.26637  1.0000   0.04002096
N   N4     0.94300  0.19435  0.76590  1.0000   0.04052147
N   N5     0.25905  0.44353  0.33020  1.0000   0.04051867
N   N6     0.75896  0.08151  0.69394  1.0000   0.04036681
N   N7     0.26637  0.58052  0.83041  1.0000   0.04002169
N   N8     0.76590  0.94299  0.19437  1.0000   0.04052124
N   N9     0.33019  0.25904  0.44355  1.0000   0.04051977
N   N10    0.69394  0.75895  0.08153  1.0000   0.04036496
N   N11    0.83039  0.26635  0.58055  1.0000   0.04001805
N   N12    0.19437  0.76589  0.94300  1.0000   0.04053109
N   N13    0.58041  0.19353  0.51540  1.0000   0.04038241
N   N14    0.94408  0.83080  0.01557  1.0000   0.04040163
N   N15    0.08016  0.33152  0.50837  1.0000   0.04071328
N   N16    0.44412  0.69365  0.00892  1.0000   0.03994261
N   N17    0.69366  0.00890  0.44412  1.0000   0.03995863
N   N18    0.33153  0.50836  0.08017  1.0000   0.04072299
N   N19    0.83081  0.01555  0.94409  1.0000   0.04039790
N   N20    0.19354  0.51537  0.58043  1.0000   0.04038174
N   N21    0.50836  0.08016  0.33154  1.0000   0.04068646
N   N22    0.00891  0.44410  0.69367  1.0000   0.03995227
N   N23    0.51539  0.58041  0.19355  1.0000   0.04038373
N   N24    0.01556  0.94407  0.83082  1.0000   0.04039402
N   N25    0.51681  0.35352  0.33734  1.0000  -0.08107658
N   N26    0.00798  0.67084  0.83756  1.0000  -0.08169150
N   N27    0.50686  0.85326  0.18809  1.0000  -0.08176018
N   N28    0.01605  0.17129  0.68687  1.0000  -0.08235272
N   N29    0.33732  0.51680  0.35353  1.0000  -0.08108049
N   N30    0.83754  0.00796  0.67086  1.0000  -0.08172653
N   N31    0.18809  0.50685  0.85328  1.0000  -0.08179400
N   N32    0.68686  0.01605  0.17131  1.0000  -0.08230635
N   N33    0.35352  0.33730  0.51683  1.0000  -0.08106042
N   N34    0.67086  0.83753  0.00798  1.0000  -0.08166359
N   N35    0.85327  0.18808  0.50686  1.0000  -0.08179491
N   N36    0.17130  0.68686  0.01607  1.0000  -0.08226151
N   N37    0.60368  0.26703  0.43685  1.0000  -0.08173702
N   N38    0.92124  0.75754  0.93716  1.0000  -0.08226035
N   N39    0.10302  0.25780  0.58684  1.0000  -0.08231247
N   N40    0.42075  0.76665  0.08769  1.0000  -0.08130451
N   N41    0.76666  0.08768  0.42076  1.0000  -0.08134510
N   N42    0.25782  0.58683  0.10304  1.0000  -0.08222011
N   N43    0.75756  0.93713  0.92124  1.0000  -0.08221558
N   N44    0.26704  0.43682  0.60369  1.0000  -0.08172109
N   N45    0.58684  0.10302  0.25782  1.0000  -0.08228963
N   N46    0.08769  0.42074  0.76667  1.0000  -0.08134792
N   N47    0.43683  0.60367  0.26705  1.0000  -0.08173966
N   N48    0.93714  0.92122  0.75756  1.0000  -0.08229870
N   N49    0.47486  0.40735  0.33208  1.0000  -0.18337591
N   N50    0.04991  0.61698  0.83266  1.0000  -0.18259167
N   N51    0.54852  0.90713  0.19265  1.0000  -0.18308358
N   N52    0.97404  0.11768  0.69194  1.0000  -0.18325183
N   N53    0.33206  0.47485  0.40736  1.0000  -0.18337790
N   N54    0.83264  0.04989  0.61700  1.0000  -0.18259759
N   N55    0.19264  0.54852  0.90715  1.0000  -0.18308507
N   N56    0.69193  0.97404  0.11770  1.0000  -0.18324991
N   N57    0.40735  0.33205  0.47488  1.0000  -0.18337595
N   N58    0.61700  0.83262  0.04991  1.0000  -0.18259853
N   N59    0.90714  0.19264  0.54853  1.0000  -0.18308979
N   N60    0.11770  0.69193  0.97406  1.0000  -0.18325360
N   N61    0.65755  0.22514  0.44193  1.0000  -0.18274485
N   N62    0.86739  0.79951  0.94206  1.0000  -0.18294776
N   N63    0.15677  0.29966  0.58206  1.0000  -0.18318958
N   N64    0.36710  0.72476  0.08275  1.0000  -0.18300902
N   N65    0.72476  0.08274  0.36711  1.0000  -0.18301773
N   N66    0.29967  0.58204  0.15679  1.0000  -0.18318914
N   N67    0.79953  0.94203  0.86740  1.0000  -0.18294766
N   N68    0.22515  0.44190  0.65757  1.0000  -0.18274029
N   N69    0.58205  0.15676  0.29968  1.0000  -0.18317842
N   N70    0.08275  0.36708  0.72477  1.0000  -0.18301158
N   N71    0.44191  0.65754  0.22516  1.0000  -0.18274226
N   N72    0.94204  0.86737  0.79953  1.0000  -0.18294211
N   N73    0.59344  0.19340  0.15523  1.0000  -0.14247758
N   N74    0.93177  0.83098  0.65523  1.0000  -0.14282163
N   N75    0.43158  0.69376  0.37001  1.0000  -0.14167915
N   N76    0.09321  0.33037  0.86929  1.0000  -0.14213643
N   N77    0.15522  0.59343  0.19342  1.0000  -0.14239765
N   N78    0.65523  0.93176  0.83100  1.0000  -0.14270042
N   N79    0.37000  0.43157  0.69378  1.0000  -0.14165072
N   N80    0.86928  0.09320  0.33039  1.0000  -0.14212476
N   N81    0.19340  0.15521  0.59344  1.0000  -0.14251845
N   N82    0.83100  0.65521  0.93180  1.0000  -0.14277074
N   N83    0.69376  0.37000  0.43160  1.0000  -0.14167442
N   N84    0.33039  0.86928  0.09320  1.0000  -0.14208043
N   N85    0.44416  0.34373  0.61896  1.0000  -0.14194002
N   N86    0.08031  0.68045  0.11830  1.0000  -0.14264129
N   N87    0.94322  0.18251  0.40364  1.0000  -0.14194190
N   N88    0.58087  0.84342  0.90524  1.0000  -0.14276998
N   N89    0.84342  0.90522  0.58088  1.0000  -0.14289378
N   N90    0.18252  0.40362  0.94324  1.0000  -0.14194255
N   N91    0.68046  0.11828  0.08031  1.0000  -0.14273373
N   N92    0.34375  0.61893  0.44418  1.0000  -0.14196551
N   N93    0.40364  0.94322  0.18252  1.0000  -0.14190264
N   N94    0.90524  0.58085  0.84345  1.0000  -0.14283412
N   N95    0.61893  0.44416  0.34377  1.0000  -0.14196414
N   N96    0.11828  0.08029  0.68045  1.0000  -0.14277467
N   N97    0.56782  0.30111  0.14702  1.0000  -0.11712584
N   N98    0.95755  0.72336  0.64688  1.0000  -0.11787837
N   N99    0.45704  0.80123  0.37949  1.0000  -0.11722733
N   N100   0.06721  0.22289  0.87765  1.0000  -0.11786108
N   N101   0.14701  0.56781  0.30113  1.0000  -0.11712584
N   N102   0.64687  0.95754  0.72338  1.0000  -0.11787585
N   N103   0.37949  0.45704  0.80125  1.0000  -0.11723036
N   N104   0.87765  0.06720  0.22291  1.0000  -0.11785529
N   N105   0.30111  0.14699  0.56782  1.0000  -0.11713782
N   N106   0.72338  0.64686  0.95757  1.0000  -0.11788289
N   N107   0.80124  0.37948  0.45707  1.0000  -0.11722390
N   N108   0.22290  0.87764  0.06720  1.0000  -0.11786056
N   N109   0.55170  0.31777  0.62782  1.0000  -0.11778762
N   N110   0.97278  0.70637  0.12796  1.0000  -0.11785843
N   N111   0.05089  0.20791  0.39561  1.0000  -0.11706177
N   N112   0.47341  0.81775  0.89642  1.0000  -0.11787591
N   N113   0.81775  0.89640  0.47342  1.0000  -0.11787665
N   N114   0.20792  0.39559  0.05091  1.0000  -0.11705638
N   N115   0.70638  0.12794  0.97278  1.0000  -0.11785102
N   N116   0.31779  0.62779  0.55171  1.0000  -0.11779288
N   N117   0.39561  0.05089  0.20792  1.0000  -0.11706383
N   N118   0.89642  0.47339  0.81778  1.0000  -0.11787353
N   N119   0.62780  0.55170  0.31781  1.0000  -0.11779016
N   N120   0.12794  0.97276  0.70638  1.0000  -0.11785698
H   H1     0.57385  0.35467  0.13838  1.0000   0.27428192
H   H2     0.95154  0.66985  0.63805  1.0000   0.27488917
H   H3     0.45102  0.85475  0.38852  1.0000   0.27475418
H   H4     0.07310  0.16929  0.88639  1.0000   0.27454737
H   H5     0.13837  0.57384  0.35469  1.0000   0.27428422
H   H6     0.63804  0.95153  0.66987  1.0000   0.27488774
H   H7     0.38852  0.45101  0.85477  1.0000   0.27475708
H   H8     0.88638  0.07309  0.16931  1.0000   0.27454713
H   H9     0.35468  0.13835  0.57385  1.0000   0.27428789
H   H10    0.66987  0.63803  0.95156  1.0000   0.27488840
H   H11    0.85475  0.38851  0.45104  1.0000   0.27475196
H   H12    0.16931  0.88638  0.07310  1.0000   0.27454881
H   H13    0.60515  0.32372  0.63695  1.0000   0.27481775
H   H14    0.91925  0.70049  0.13718  1.0000   0.27487023
H   H15    0.10451  0.20177  0.38731  1.0000   0.27423401
H   H16    0.41988  0.82369  0.88744  1.0000   0.27494748
H   H17    0.82370  0.88742  0.41988  1.0000   0.27495393
H   H18    0.20178  0.38729  0.10452  1.0000   0.27423070
H   H19    0.70050  0.13715  0.91925  1.0000   0.27486895
H   H20    0.32374  0.63692  0.60517  1.0000   0.27481812
H   H21    0.38730  0.10451  0.20178  1.0000   0.27423685
H   H22    0.88744  0.41986  0.82372  1.0000   0.27494830
H   H23    0.63693  0.60515  0.32375  1.0000   0.27481848
H   H24    0.13716  0.91923  0.70050  1.0000   0.27487154
C   C1     0.40510  0.29499  0.20858  1.0000  -0.01125794
C   C2     0.12013  0.72913  0.70825  1.0000  -0.01134804
C   C3     0.61949  0.79523  0.31681  1.0000  -0.01118862
C   C4     0.90452  0.22967  0.81660  1.0000  -0.01113975
C   C5     0.20857  0.40509  0.29500  1.0000  -0.01125842
C   C6     0.70824  0.12011  0.72916  1.0000  -0.01135877
C   C7     0.31680  0.61948  0.79525  1.0000  -0.01118920
C   C8     0.81659  0.90451  0.22969  1.0000  -0.01114256
C   C9     0.29499  0.20856  0.40510  1.0000  -0.01125740
C   C10    0.72915  0.70823  0.12014  1.0000  -0.01134574
C   C11    0.79523  0.31679  0.61951  1.0000  -0.01118648
C   C12    0.22968  0.81658  0.90452  1.0000  -0.01114176
C   C13    0.54515  0.15504  0.56618  1.0000  -0.01128975
C   C14    0.97914  0.86925  0.06614  1.0000  -0.01121041
C   C15    0.04498  0.37039  0.45788  1.0000  -0.01133787
C   C16    0.47961  0.65512  0.95838  1.0000  -0.01127534
C   C17    0.65512  0.95836  0.47961  1.0000  -0.01130180
C   C18    0.37040  0.45787  0.04500  1.0000  -0.01135229
C   C19    0.86926  0.06612  0.97914  1.0000  -0.01119979
C   C20    0.15505  0.56615  0.54517  1.0000  -0.01128966
C   C21    0.45787  0.04498  0.37040  1.0000  -0.01133313
C   C22    0.95837  0.47959  0.65515  1.0000  -0.01128219
C   C23    0.56617  0.54515  0.15507  1.0000  -0.01129391
C   C24    0.06613  0.97912  0.86925  1.0000  -0.01122163
H   H25    0.35523  0.31972  0.20520  1.0000   0.09420876
H   H26    0.16995  0.70432  0.70474  1.0000   0.09457755
H   H27    0.66917  0.82010  0.31993  1.0000   0.09448460
H   H28    0.85470  0.20511  0.82031  1.0000   0.09404376
H   H29    0.20519  0.35522  0.31973  1.0000   0.09420740
H   H30    0.70474  0.16994  0.70434  1.0000   0.09457578
H   H31    0.31992  0.66916  0.82012  1.0000   0.09448582
H   H32    0.82029  0.85469  0.20514  1.0000   0.09404145
H   H33    0.31972  0.20518  0.35523  1.0000   0.09420909
H   H34    0.70433  0.70473  0.16997  1.0000   0.09457460
H   H35    0.82010  0.31990  0.66919  1.0000   0.09448011
H   H36    0.20513  0.82028  0.85470  1.0000   0.09403551
H   H37    0.56981  0.10513  0.56962  1.0000   0.09412051
H   H38    0.95429  0.91905  0.06960  1.0000   0.09423236
H   H39    0.06983  0.42008  0.45440  1.0000   0.09423233
H   H40    0.45495  0.60535  0.95498  1.0000   0.09454560
H   H41    0.60536  0.95496  0.45495  1.0000   0.09454249
H   H42    0.42010  0.45439  0.06984  1.0000   0.09423373
H   H43    0.91906  0.06958  0.95429  1.0000   0.09422444
H   H44    0.10514  0.56960  0.56983  1.0000   0.09412005
H   H45    0.45439  0.06982  0.42009  1.0000   0.09423299
H   H46    0.95497  0.45493  0.60538  1.0000   0.09454740
H   H47    0.56962  0.56981  0.10516  1.0000   0.09412466
H   H48    0.06959  0.95427  0.91906  1.0000   0.09422406
C   C25    0.49836  0.30728  0.29280  1.0000   0.08259846
C   C26    0.02660  0.71694  0.79263  1.0000   0.08288232
C   C27    0.52572  0.80729  0.23305  1.0000   0.08325678
C   C28    0.99776  0.21721  0.73197  1.0000   0.08318894
C   C29    0.29278  0.49835  0.30730  1.0000   0.08260075
C   C30    0.79262  0.02659  0.71696  1.0000   0.08288342
C   C31    0.23305  0.52571  0.80731  1.0000   0.08325310
C   C32    0.73196  0.99775  0.21724  1.0000   0.08318653
C   C33    0.30729  0.29277  0.49837  1.0000   0.08259869
C   C34    0.71696  0.79260  0.02661  1.0000   0.08288855
C   C35    0.80729  0.23304  0.52574  1.0000   0.08325463
C   C36    0.21723  0.73196  0.99777  1.0000   0.08319435
C   C37    0.55746  0.24843  0.48167  1.0000   0.08260892
C   C38    0.96720  0.77599  0.98197  1.0000   0.08304749
C   C39    0.05713  0.27659  0.54191  1.0000   0.08302026
C   C40    0.46689  0.74833  0.04267  1.0000   0.08320028
C   C41    0.74834  0.04265  0.46689  1.0000   0.08319933
C   C42    0.27661  0.54190  0.05714  1.0000   0.08302474
C   C43    0.77601  0.98194  0.96720  1.0000   0.08305225
C   C44    0.24843  0.48163  0.55748  1.0000   0.08260791
C   C45    0.54191  0.05713  0.27661  1.0000   0.08302816
C   C46    0.04266  0.46687  0.74835  1.0000   0.08319608
C   C47    0.48165  0.55746  0.24845  1.0000   0.08261159
C   C48    0.98195  0.96718  0.77601  1.0000   0.08304673
H   H49    0.52378  0.25960  0.28531  1.0000   0.08891333
H   H50    0.00122  0.76460  0.78484  1.0000   0.08851420
H   H51    0.50058  0.75965  0.24109  1.0000   0.08841269
H   H52    0.02328  0.26463  0.73974  1.0000   0.08825940
H   H53    0.28530  0.52377  0.25962  1.0000   0.08891333
H   H54    0.78483  0.00121  0.76463  1.0000   0.08851139
H   H55    0.24109  0.50057  0.75966  1.0000   0.08841465
H   H56    0.73974  0.02327  0.26465  1.0000   0.08825755
H   H57    0.25960  0.28529  0.52379  1.0000   0.08891757
H   H58    0.76463  0.78481  0.00124  1.0000   0.08851248
H   H59    0.75965  0.24108  0.50060  1.0000   0.08841963
H   H60    0.26465  0.73973  0.02328  1.0000   0.08826466
H   H61    0.50979  0.27384  0.48935  1.0000   0.08880438
H   H62    0.01485  0.75060  0.98967  1.0000   0.08861711
H   H63    0.00962  0.25129  0.53399  1.0000   0.08853440
H   H64    0.51442  0.77375  0.03486  1.0000   0.08825948
H   H65    0.77375  0.03484  0.51442  1.0000   0.08825084
H   H66    0.25131  0.53397  0.00963  1.0000   0.08852946
H   H67    0.75061  0.98965  0.01485  1.0000   0.08860730
H   H68    0.27385  0.48932  0.50981  1.0000   0.08880476
H   H69    0.53398  0.00961  0.25131  1.0000   0.08852880
H   H70    0.03486  0.51440  0.77377  1.0000   0.08825084
H   H71    0.48934  0.50979  0.27386  1.0000   0.08879936
H   H72    0.98966  0.01483  0.75062  1.0000   0.08861604
C   C49    0.43082  0.39254  0.28507  1.0000   0.09666577
C   C50    0.09413  0.63163  0.78546  1.0000   0.09647485
C   C51    0.59283  0.89259  0.23964  1.0000   0.09682528
C   C52    0.93012  0.13234  0.73940  1.0000   0.09643049
C   C53    0.28505  0.43081  0.39255  1.0000   0.09666573
C   C54    0.78545  0.09411  0.63165  1.0000   0.09646746
C   C55    0.23964  0.59283  0.89261  1.0000   0.09681984
C   C56    0.73940  0.93011  0.13236  1.0000   0.09641554
C   C57    0.39254  0.28504  0.43084  1.0000   0.09666814
C   C58    0.63165  0.78544  0.09414  1.0000   0.09648761
C   C59    0.89260  0.23963  0.59285  1.0000   0.09682372
C   C60    0.13235  0.73939  0.93013  1.0000   0.09643608
C   C61    0.64279  0.18095  0.48912  1.0000   0.09645494
C   C62    0.88192  0.84356  0.98914  1.0000   0.09652648
C   C63    0.14223  0.34400  0.53494  1.0000   0.09652753
C   C64    0.38193  0.68086  0.03546  1.0000   0.09653241
C   C65    0.68086  0.03545  0.38194  1.0000   0.09652596
C   C66    0.34401  0.53492  0.14225  1.0000   0.09652701
C   C67    0.84358  0.98912  0.88193  1.0000   0.09651913
C   C68    0.18095  0.48909  0.64281  1.0000   0.09645323
C   C69    0.53493  0.14223  0.34402  1.0000   0.09652623
C   C70    0.03546  0.38191  0.68088  1.0000   0.09652841
C   C71    0.48910  0.64278  0.18096  1.0000   0.09645041
C   C72    0.98913  0.88190  0.84358  1.0000   0.09651854
H   H73    0.39014  0.42403  0.26699  1.0000   0.08900018
H   H74    0.13489  0.60005  0.76765  1.0000   0.08873689
H   H75    0.63342  0.92422  0.25718  1.0000   0.08777056
H   H76    0.88940  0.10096  0.75744  1.0000   0.08925998
H   H77    0.26698  0.39013  0.42405  1.0000   0.08900224
H   H78    0.76765  0.13487  0.60008  1.0000   0.08873118
H   H79    0.25717  0.63342  0.92423  1.0000   0.08777004
H   H80    0.75743  0.88939  0.10098  1.0000   0.08925446
H   H81    0.42404  0.26697  0.39015  1.0000   0.08900310
H   H82    0.60007  0.76763  0.13489  1.0000   0.08873279
H   H83    0.92422  0.25716  0.63343  1.0000   0.08777006
H   H84    0.10097  0.75742  0.88941  1.0000   0.08925547
H   H85    0.67436  0.14027  0.50713  1.0000   0.08911635
H   H86    0.85033  0.88429  0.00695  1.0000   0.08850331
H   H87    0.17376  0.38474  0.51720  1.0000   0.08900003
H   H88    0.35054  0.64024  0.01758  1.0000   0.08806557
H   H89    0.64025  0.01757  0.35054  1.0000   0.08805765
H   H90    0.38475  0.51719  0.17378  1.0000   0.08899711
H   H91    0.88431  0.00692  0.85034  1.0000   0.08850749
H   H92    0.14028  0.50711  0.67438  1.0000   0.08910849
H   H93    0.51720  0.17376  0.38476  1.0000   0.08899810
H   H94    0.01757  0.35052  0.64026  1.0000   0.08805714
H   H95    0.50712  0.67436  0.14029  1.0000   0.08910607
H   H96    0.00693  0.85032  0.88431  1.0000   0.08850383
C   C73    0.44090  0.29931  0.13918  1.0000  -0.07763532
C   C74    0.08444  0.72514  0.63897  1.0000  -0.07761307
C   C75    0.58397  0.79912  0.38638  1.0000  -0.07753556
C   C76    0.94034  0.22549  0.88582  1.0000  -0.07767555
C   C77    0.13916  0.44088  0.29933  1.0000  -0.07763285
C   C78    0.63896  0.08443  0.72516  1.0000  -0.07760807
C   C79    0.38638  0.58397  0.79914  1.0000  -0.07753309
C   C80    0.88581  0.94033  0.22551  1.0000  -0.07767729
C   C81    0.29931  0.13916  0.44089  1.0000  -0.07763359
C   C82    0.72516  0.63895  0.08446  1.0000  -0.07761050
C   C83    0.79912  0.38637  0.58400  1.0000  -0.07753207
C   C84    0.22551  0.88581  0.94034  1.0000  -0.07767458
C   C85    0.54952  0.19078  0.63540  1.0000  -0.07774453
C   C86    0.97495  0.83332  0.13550  1.0000  -0.07759392
C   C87    0.04903  0.33488  0.38849  1.0000  -0.07783119
C   C88    0.47575  0.69086  0.88892  1.0000  -0.07753480
C   C89    0.69087  0.88891  0.47576  1.0000  -0.07754061
C   C90    0.33489  0.38847  0.04905  1.0000  -0.07782869
C   C91    0.83333  0.13548  0.97495  1.0000  -0.07759771
C   C92    0.19080  0.63537  0.54954  1.0000  -0.07774791
C   C93    0.38848  0.04903  0.33489  1.0000  -0.07782921
C   C94    0.88891  0.47574  0.69089  1.0000  -0.07753616
C   C95    0.63539  0.54952  0.19082  1.0000  -0.07774909
C   C96    0.13549  0.97493  0.83333  1.0000  -0.07759650
H   H97    0.40889  0.27345  0.10227  1.0000   0.08274201
H   H98    0.11661  0.75099  0.60190  1.0000   0.08273058
H   H99    0.61631  0.77308  0.42312  1.0000   0.08267571
H   H100   0.90825  0.25154  0.92281  1.0000   0.08275794
H   H101   0.10226  0.40887  0.27346  1.0000   0.08274096
H   H102   0.60189  0.11660  0.75101  1.0000   0.08272536
H   H103   0.42312  0.61631  0.77309  1.0000   0.08267138
H   H104   0.92280  0.90824  0.25156  1.0000   0.08275633
H   H105   0.27345  0.10225  0.40888  1.0000   0.08274083
H   H106   0.75101  0.60187  0.11664  1.0000   0.08273094
H   H107   0.77308  0.42310  0.61634  1.0000   0.08267378
H   H108   0.25155  0.92279  0.90824  1.0000   0.08275711
H   H109   0.52361  0.15879  0.67258  1.0000   0.08276292
H   H110   0.00097  0.86521  0.17241  1.0000   0.08285658
H   H111   0.02321  0.36733  0.35164  1.0000   0.08272066
H   H112   0.50191  0.65869  0.85211  1.0000   0.08260459
H   H113   0.65870  0.85210  0.50192  1.0000   0.08260835
H   H114   0.36734  0.35162  0.02323  1.0000   0.08271783
H   H115   0.86522  0.17239  0.00097  1.0000   0.08285709
H   H116   0.15881  0.67256  0.52362  1.0000   0.08276665
H   H117   0.35163  0.02321  0.36733  1.0000   0.08272004
H   H118   0.85210  0.50189  0.65872  1.0000   0.08260794
H   H119   0.67257  0.52360  0.15883  1.0000   0.08276808
H   H120   0.17240  0.00095  0.86521  1.0000   0.08285837
H   H121   0.44741  0.35278  0.12586  1.0000   0.09273048
H   H122   0.07781  0.67173  0.62578  1.0000   0.09274882
H   H123   0.57728  0.85251  0.39981  1.0000   0.09291918
H   H124   0.94692  0.17205  0.89929  1.0000   0.09236311
H   H125   0.12585  0.44740  0.35279  1.0000   0.09273120
H   H126   0.62577  0.07780  0.67175  1.0000   0.09274556
H   H127   0.39981  0.57727  0.85252  1.0000   0.09292333
H   H128   0.89928  0.94691  0.17207  1.0000   0.09237360
H   H129   0.35278  0.12584  0.44741  1.0000   0.09273066
H   H130   0.67175  0.62576  0.07783  1.0000   0.09274824
H   H131   0.85251  0.39979  0.57730  1.0000   0.09291634
H   H132   0.17206  0.89927  0.94691  1.0000   0.09237360
H   H133   0.60300  0.19718  0.64842  1.0000   0.09282581
H   H134   0.92151  0.82689  0.14901  1.0000   0.09268250
H   H135   0.10247  0.32808  0.37507  1.0000   0.09265951
H   H136   0.42238  0.69751  0.87542  1.0000   0.09285913
H   H137   0.69751  0.87540  0.42238  1.0000   0.09285357
H   H138   0.32809  0.37505  0.10248  1.0000   0.09265823
H   H139   0.82690  0.14898  0.92152  1.0000   0.09268004
H   H140   0.19720  0.64839  0.60302  1.0000   0.09282712
H   H141   0.37506  0.10246  0.32809  1.0000   0.09266197
H   H142   0.87541  0.42236  0.69754  1.0000   0.09285663
H   H143   0.64841  0.60300  0.19722  1.0000   0.09282795
H   H144   0.14899  0.92149  0.82690  1.0000   0.09268561
C   C97    0.50833  0.26583  0.14257  1.0000   0.04883555
C   C98    0.01704  0.75871  0.64247  1.0000   0.04875515
C   C99    0.51665  0.76571  0.38316  1.0000   0.04882002
C   C100   0.00779  0.25864  0.88209  1.0000   0.04875102
C   C101   0.14255  0.50831  0.26585  1.0000   0.04883802
C   C102   0.64246  0.01703  0.75873  1.0000   0.04874660
C   C103   0.38315  0.51664  0.76573  1.0000   0.04881842
C   C104   0.88208  0.00778  0.25867  1.0000   0.04876233
C   C105   0.26583  0.14254  0.50832  1.0000   0.04883304
C   C106   0.75873  0.64245  0.01706  1.0000   0.04875234
C   C107   0.76571  0.38315  0.51667  1.0000   0.04881929
C   C108   0.25866  0.88208  0.00778  1.0000   0.04875547
C   C109   0.51623  0.25833  0.63189  1.0000   0.04890315
C   C110   0.00825  0.76579  0.13183  1.0000   0.04882232
C   C111   0.01551  0.26759  0.39172  1.0000   0.04868619
C   C112   0.50903  0.75824  0.89232  1.0000   0.04889109
C   C113   0.75824  0.89230  0.50904  1.0000   0.04888875
C   C114   0.26760  0.39171  0.01553  1.0000   0.04868606
C   C115   0.76580  0.13181  0.00826  1.0000   0.04880735
C   C116   0.25834  0.63186  0.51625  1.0000   0.04890411
C   C117   0.39172  0.01551  0.26760  1.0000   0.04868520
C   C118   0.89232  0.50902  0.75827  1.0000   0.04888741
C   C119   0.63187  0.51623  0.25836  1.0000   0.04890286
C   C120   0.13182  0.00824  0.76580  1.0000   0.04877956
C   C121   0.52494  0.19843  0.14777  1.0000  -0.00512328
C   C122   0.00032  0.82607  0.64776  1.0000  -0.00507302
C   C123   0.50012  0.69844  0.37719  1.0000  -0.00506864
C   C124   0.02465  0.32590  0.87676  1.0000  -0.00498526
C   C125   0.14776  0.52493  0.19845  1.0000  -0.00511941
C   C126   0.64776  0.00031  0.82609  1.0000  -0.00505998
C   C127   0.37717  0.50011  0.69846  1.0000  -0.00506634
C   C128   0.87675  0.02464  0.32593  1.0000  -0.00497794
C   C129   0.19843  0.14774  0.52494  1.0000  -0.00512375
C   C130   0.82610  0.64774  0.00035  1.0000  -0.00507547
C   C131   0.69845  0.37717  0.50014  1.0000  -0.00506652
C   C132   0.32592  0.87674  0.02464  1.0000  -0.00498911
C   C133   0.44893  0.27517  0.62629  1.0000  -0.00518023
C   C134   0.07555  0.74898  0.12571  1.0000  -0.00519663
C   C135   0.94813  0.25111  0.39682  1.0000  -0.00487245
C   C136   0.57629  0.77489  0.89791  1.0000  -0.00514291
C   C137   0.77490  0.89789  0.57630  1.0000  -0.00515109
C   C138   0.25113  0.39680  0.94815  1.0000  -0.00486984
C   C139   0.74899  0.12569  0.07555  1.0000  -0.00520549
C   C140   0.27518  0.62626  0.44895  1.0000  -0.00518135
C   C141   0.39681  0.94813  0.25112  1.0000  -0.00487201
C   C142   0.89791  0.57628  0.77492  1.0000  -0.00514444
C   C143   0.62627  0.44893  0.27520  1.0000  -0.00518188
C   C144   0.12570  0.07553  0.74898  1.0000  -0.00521666
H   H145   0.49287  0.15458  0.14597  1.0000   0.05793248
H   H146   0.03233  0.86999  0.64601  1.0000   0.05741235
H   H147   0.53224  0.65443  0.37830  1.0000   0.05731901
H   H148   0.99272  0.37003  0.87847  1.0000   0.05706390
H   H149   0.14596  0.49286  0.15459  1.0000   0.05793210
H   H150   0.64601  0.03232  0.87001  1.0000   0.05740736
H   H151   0.37828  0.53224  0.65445  1.0000   0.05731761
H   H152   0.87845  0.99270  0.37006  1.0000   0.05706921
H   H153   0.15458  0.14595  0.49287  1.0000   0.05793518
H   H154   0.87001  0.64598  0.03236  1.0000   0.05741312
H   H155   0.65443  0.37828  0.53227  1.0000   0.05732231
H   H156   0.37005  0.87845  0.99271  1.0000   0.05706906
H   H157   0.40496  0.24322  0.62775  1.0000   0.05771695
H   H158   0.11953  0.78091  0.12684  1.0000   0.05723476
H   H159   0.90422  0.28337  0.39531  1.0000   0.05733813
H   H160   0.62036  0.74286  0.89645  1.0000   0.05741363
H   H161   0.74287  0.89643  0.62037  1.0000   0.05740713
H   H162   0.28339  0.39529  0.90423  1.0000   0.05733446
H   H163   0.78092  0.12682  0.11954  1.0000   0.05722941
H   H164   0.24323  0.62772  0.40498  1.0000   0.05771633
H   H165   0.39530  0.90422  0.28338  1.0000   0.05733350
H   H166   0.89645  0.62035  0.74289  1.0000   0.05740894
H   H167   0.62773  0.40496  0.24326  1.0000   0.05771311
H   H168   0.12683  0.11951  0.78091  1.0000   0.05723011
C   C145   0.61795  0.25590  0.15434  1.0000   0.08517522
C   C146   0.90735  0.76846  0.65426  1.0000   0.08525381
C   C147   0.40697  0.75633  0.37184  1.0000   0.08520513
C   C148   0.11750  0.26767  0.87025  1.0000   0.08537627
C   C149   0.15433  0.61793  0.25592  1.0000   0.08517742
C   C150   0.65425  0.90733  0.76848  1.0000   0.08524054
C   C151   0.37184  0.40696  0.75635  1.0000   0.08520636
C   C152   0.87024  0.11749  0.26769  1.0000   0.08535218
C   C153   0.25590  0.15431  0.61794  1.0000   0.08517245
C   C154   0.76848  0.65423  0.90737  1.0000   0.08526571
C   C155   0.75634  0.37184  0.40699  1.0000   0.08520382
C   C156   0.26768  0.87024  0.11750  1.0000   0.08538878
C   C157   0.50671  0.36807  0.62034  1.0000   0.08537238
C   C158   0.01775  0.65612  0.12010  1.0000   0.08529131
C   C159   0.00579  0.15785  0.40252  1.0000   0.08526947
C   C160   0.51824  0.86790  0.90390  1.0000   0.08519592
C   C161   0.86791  0.90388  0.51825  1.0000   0.08519652
C   C162   0.15786  0.40250  0.00580  1.0000   0.08526945
C   C163   0.65613  0.12007  0.01776  1.0000   0.08530057
C   C164   0.36808  0.62031  0.50672  1.0000   0.08537199
C   C165   0.40252  0.00579  0.15785  1.0000   0.08528241
C   C166   0.90390  0.51823  0.86793  1.0000   0.08519945
C   C167   0.62032  0.50671  0.36810  1.0000   0.08537325
C   C168   0.12007  0.01773  0.65612  1.0000   0.08531491
H   H169   0.67066  0.26860  0.15885  1.0000   0.06622805
H   H170   0.85461  0.75569  0.65876  1.0000   0.06613119
H   H171   0.35420  0.76927  0.36776  1.0000   0.06605457
H   H172   0.17020  0.25451  0.86574  1.0000   0.06614185
H   H173   0.15884  0.67065  0.26862  1.0000   0.06622561
H   H174   0.65875  0.85460  0.75571  1.0000   0.06612737
H   H175   0.36776  0.35419  0.76930  1.0000   0.06605255
H   H176   0.86574  0.17019  0.25452  1.0000   0.06614376
H   H177   0.26860  0.15882  0.67066  1.0000   0.06622607
H   H178   0.75572  0.65874  0.85464  1.0000   0.06612802
H   H179   0.76928  0.36776  0.35422  1.0000   0.06605377
H   H180   0.25452  0.86573  0.17020  1.0000   0.06614188
H   H181   0.51959  0.42079  0.61607  1.0000   0.06590675
H   H182   0.00482  0.60343  0.11584  1.0000   0.06609848
H   H183   0.01861  0.10503  0.40652  1.0000   0.06604840
H   H184   0.50520  0.92063  0.90822  1.0000   0.06612365
H   H185   0.92063  0.90820  0.50520  1.0000   0.06612497
H   H186   0.10504  0.40650  0.01862  1.0000   0.06605020
H   H187   0.60345  0.11581  0.00483  1.0000   0.06609958
H   H188   0.42081  0.61604  0.51960  1.0000   0.06590739
H   H189   0.40652  0.01861  0.10504  1.0000   0.06604152
H   H190   0.90822  0.50518  0.92066  1.0000   0.06612654
H   H191   0.61605  0.51959  0.42082  1.0000   0.06590736
H   H192   0.11581  0.00480  0.60343  1.0000   0.06609493
C   C169   0.39553  0.21918  0.23162  1.0000   0.37791472
C   C170   0.12972  0.80489  0.73098  1.0000   0.37793784
C   C171   0.62941  0.71952  0.29384  1.0000   0.37775573
C   C172   0.89485  0.30547  0.79344  1.0000   0.37796274
C   C173   0.23161  0.39552  0.21920  1.0000   0.37791602
C   C174   0.73097  0.12971  0.80491  1.0000   0.37794431
C   C175   0.29383  0.62940  0.71954  1.0000   0.37775526
C   C176   0.79342  0.89484  0.30550  1.0000   0.37796104
C   C177   0.21918  0.23160  0.39554  1.0000   0.37791426
C   C178   0.80491  0.73096  0.12974  1.0000   0.37793847
C   C179   0.71952  0.29381  0.62942  1.0000   0.37775488
C   C180   0.30549  0.79341  0.89485  1.0000   0.37795661
C   C181   0.46935  0.14565  0.54350  1.0000   0.37797252
C   C182   0.05493  0.87888  0.04309  1.0000   0.37790855
C   C183   0.96924  0.38037  0.48109  1.0000   0.37791291
C   C184   0.55531  0.64542  0.98148  1.0000   0.37790461
C   C185   0.64542  0.98146  0.55531  1.0000   0.37791266
C   C186   0.38038  0.48108  0.96926  1.0000   0.37790729
C   C187   0.87889  0.04307  0.05494  1.0000   0.37792316
C   C188   0.14566  0.54348  0.46936  1.0000   0.37797248
C   C189   0.48108  0.96924  0.38038  1.0000   0.37791679
C   C190   0.98147  0.55529  0.64544  1.0000   0.37790647
C   C191   0.54350  0.46935  0.14567  1.0000   0.37797232
C   C192   0.04308  0.05492  0.87889  1.0000   0.37791726
